* 
* Copyright (c) 1993 - 2022 ARM. All Rights Reserved
* This file has been provided pursuant to a License Agreement
* containing restrictions on its use.  This file contains valuable
* trade secrets and proprietary information of ARM,
* and is protected by patents, copyright law
* and international treaties
* 
* Generated by bif2cdl 3.9.2
* Version: r1p1
* Name: High Density Single Port Register File RVT RVT Compiler | LOGIC0040LL 40nm Process 0.299um^2 Bit Cell
* Comment: This is a memory instance
* Configuration:  -activity_factor 50 -back_biasing off -bits 104 -\
* Configuration: bmux off -bus_notation on -check_instname on -diod\
* Configuration: es on -drive 6 -ema on -frequency 200 -instname sr\
* Configuration: am520x104 -left_bus_delim "[" -mux 4 -mvt "" -name\
* Configuration: _case upper -power_type otc -prefix "" -pwr_gnd_re\
* Configuration: name vddpe:VDDPE,vddce:VDDCE,vsse:VSSE -retention \
* Configuration: on -right_bus_delim "]" -ser none -site_def off -t\
* Configuration: op_layer m5-m10 -words 520 -write_mask off -write_\
* Configuration: thru off -corners ss_0p99v_0p99v_125c,tt_1p10v_1p1\
* Configuration: 0v_125c
* Codefile: 
* 
*
*.BIPOLAR
*.DIOAREA
*.DIOPERI
*
****
.SUBCKT sram520x104BOTCAP4 D LOG0 Q TD TWEN VDDCE VDDPE VNWP VPW VSS VSSE WEN
+  WENY
** sram520x104BOTCAP4: 4 flat devices **
DI77.D_Diode_X_dio VPW WEN NDIO11LL AREA=0.035P PJ=0.78U
DI78.D_Diode_X_dio VPW TWEN NDIO11LL AREA=0.035P PJ=0.78U
DI80.D_Diode_X_dio VPW D NDIO11LL AREA=0.035P PJ=0.78U
DI82.D_Diode_X_dio VPW TD NDIO11LL AREA=0.035P PJ=0.78U
.ENDS sram520x104BOTCAP4
****
.SUBCKT sram520x104BOTCAP4_RPT D LOG0 Q VDDCE VNWP VPW WEN WENY
** sram520x104BOTCAP4_RPT: 4 flat devices **
XI0 D LOG0 Q LOG0 LOG0 VDDCE VNWP VNWP VPW VPW VPW WEN WENY sram520x104BOTCAP4
.ENDS sram520x104BOTCAP4_RPT
****
.SUBCKT sram520x104MIDBOT CA0 CA1 CA2 CEN CLK DUM_ACTP DUM_NACTC DUM_RETNVT
+  EMA0 EMA1 EMA2 EMAW0 EMAW1 GWEN LA0 LA1 LA2 LOG0 PGEN RA0 RA1 RA2 RA3 RA4
+  RA5 RDT RET1N RET2N VDDCE VDDC_L VDDC_R VDDPE VDDP_CLKGEN VNWC VNWP VPW VSS
+  VSSE
** sram520x104MIDBOT: 24 flat devices **
DI103.D_Diode_X_dio VPW CLK NDIO11LL AREA=0.035P PJ=0.78U
DI104.D_Diode_X_dio VPW EMAW0 NDIO11LL AREA=0.035P PJ=0.78U
DI105.D_Diode_X_dio VPW EMA2 NDIO11LL AREA=0.035P PJ=0.78U
DI106.D_Diode_X_dio VPW RDT NDIO11LL AREA=0.035P PJ=0.78U
DI107.D_Diode_X_dio VPW RET1N NDIO11LL AREA=0.035P PJ=0.78U
DI109.D_Diode_X_dio VPW EMA0 NDIO11LL AREA=0.035P PJ=0.78U
DI110.D_Diode_X_dio VPW GWEN NDIO11LL AREA=0.035P PJ=0.78U
DI111.D_Diode_X_dio VPW EMAW1 NDIO11LL AREA=0.035P PJ=0.78U
DI112.D_Diode_X_dio VPW EMA1 NDIO11LL AREA=0.035P PJ=0.78U
DI113.D_Diode_X_dio VPW CEN NDIO11LL AREA=0.035P PJ=0.78U
DI125.D_Diode_X_dio VPW PGEN NDIO11LL AREA=0.035P PJ=0.78U
DI127.D_Diode_X_dio VPW RET2N NDIO11LL AREA=0.035P PJ=0.78U
DI59.D_Diode_X_dio VPW CA0 NDIO11LL AREA=0.035P PJ=0.78U
DI61.D_Diode_X_dio VPW CA1 NDIO11LL AREA=0.035P PJ=0.78U
DI62.D_Diode_X_dio VPW LA0 NDIO11LL AREA=0.035P PJ=0.78U
DI63.D_Diode_X_dio VPW CA2 NDIO11LL AREA=0.035P PJ=0.78U
DI64.D_Diode_X_dio VPW RA2 NDIO11LL AREA=0.035P PJ=0.78U
DI67.D_Diode_X_dio VPW RA3 NDIO11LL AREA=0.035P PJ=0.78U
DI68.D_Diode_X_dio VPW RA1 NDIO11LL AREA=0.035P PJ=0.78U
DI69.D_Diode_X_dio VPW RA0 NDIO11LL AREA=0.035P PJ=0.78U
DI70.D_Diode_X_dio VPW RA4 NDIO11LL AREA=0.035P PJ=0.78U
DI71.D_Diode_X_dio VPW RA5 NDIO11LL AREA=0.035P PJ=0.78U
DI72.D_Diode_X_dio VPW LA1 NDIO11LL AREA=0.035P PJ=0.78U
DI73.D_Diode_X_dio VPW LA2 NDIO11LL AREA=0.035P PJ=0.78U
.ENDS sram520x104MIDBOT
****
.SUBCKT sram520x104MIDBOT_WRAPT CA0 CA1 CA2 CEN CLK DUM_ACTP DUM_NACTC
+  DUM_RETNVT EMA0 EMA1 EMA2 EMAW0 EMAW1 GWEN LA0 LA1 LA2 LOG0 RA0 RA1 RA2 RA3
+  RA4 RA5 RDT RET1N VDDCE VDDC_L VDDC_R VDDPE VDDP_CLKGEN VNWC VNWP VPW VSS
+  VSSE
** sram520x104MIDBOT_WRAPT: 24 flat devices **
XI0 CA0 CA1 CA2 CEN CLK DUM_ACTP DUM_NACTC DUM_RETNVT EMA0 EMA1 EMA2 EMAW0
+  EMAW1 GWEN LA0 LA1 LA2 LOG0 PGEN RA0 RA1 RA2 RA3 RA4 RA5 RDT RET1N RET2N
+  VDDCE VDDC_L VDDC_R VDDPE VDDP_CLKGEN VNWC VNWP VPW VSS VSSE
+  sram520x104MIDBOT
.ENDS sram520x104MIDBOT_WRAPT
****
.SUBCKT sram520x104BOTCORNER LOG0 PSI SI VNWC VNWP VPW VSS
** sram520x104BOTCORNER: 2 flat devices **
DI74.D_Diode_X_dio VPW PSI NDIO11LL AREA=0.035P PJ=0.78U
DI85.D_Diode_X_dio VPW SI NDIO11LL AREA=0.035P PJ=0.78U
.ENDS sram520x104BOTCORNER
****
.SUBCKT sram520x104BOTCORNER_WRAPT LOG0 PSI SI VNWC VNWP VPW VSS
** sram520x104BOTCORNER_WRAPT: 2 flat devices **
XI0 LOG0 PSI SI VNWC VNWP VPW VSS sram520x104BOTCORNER
.ENDS sram520x104BOTCORNER_WRAPT
****
.SUBCKT sram520x104BOTCAPROW CA0 CA1 CA2 CEN CLK DUM_ACTP DUM_NACTC DUM_RETNVT
+  D_0 D_1 D_2 D_3 D_4 D_5 D_6 D_7 D_8 D_9 D_10 D_11 D_12 D_13 D_14 D_15 D_16
+  D_17 D_18 D_19 D_20 D_21 D_22 D_23 D_24 D_25 D_26 D_27 D_28 D_29 D_30 D_31
+  D_32 D_33 D_34 D_35 D_36 D_37 D_38 D_39 D_40 D_41 D_42 D_43 D_44 D_45 D_46
+  D_47 D_48 D_49 D_50 D_51 D_52 D_53 D_54 D_55 D_56 D_57 D_58 D_59 D_60 D_61
+  D_62 D_63 D_64 D_65 D_66 D_67 D_68 D_69 D_70 D_71 D_72 D_73 D_74 D_75 D_76
+  D_77 D_78 D_79 D_80 D_81 D_82 D_83 D_84 D_85 D_86 D_87 D_88 D_89 D_90 D_91
+  D_92 D_93 D_94 D_95 D_96 D_97 D_98 D_99 D_100 D_101 D_102 D_103 EMA0 EMA1
+  EMA2 EMAW0 EMAW1 GWEN LA0 LA1 LA2 LOG0 PSI_0 PSI_1 Q_0 Q_1 Q_2 Q_3 Q_4 Q_5
+  Q_6 Q_7 Q_8 Q_9 Q_10 Q_11 Q_12 Q_13 Q_14 Q_15 Q_16 Q_17 Q_18 Q_19 Q_20 Q_21
+  Q_22 Q_23 Q_24 Q_25 Q_26 Q_27 Q_28 Q_29 Q_30 Q_31 Q_32 Q_33 Q_34 Q_35 Q_36
+  Q_37 Q_38 Q_39 Q_40 Q_41 Q_42 Q_43 Q_44 Q_45 Q_46 Q_47 Q_48 Q_49 Q_50 Q_51
+  Q_52 Q_53 Q_54 Q_55 Q_56 Q_57 Q_58 Q_59 Q_60 Q_61 Q_62 Q_63 Q_64 Q_65 Q_66
+  Q_67 Q_68 Q_69 Q_70 Q_71 Q_72 Q_73 Q_74 Q_75 Q_76 Q_77 Q_78 Q_79 Q_80 Q_81
+  Q_82 Q_83 Q_84 Q_85 Q_86 Q_87 Q_88 Q_89 Q_90 Q_91 Q_92 Q_93 Q_94 Q_95 Q_96
+  Q_97 Q_98 Q_99 Q_100 Q_101 Q_102 Q_103 RA0 RA1 RA2 RA3 RA4 RA5 RDT RET1N
+  SI_0 SI_1 VDDCE_0 VDDCE_1 VDDCE_2 VDDCE_3 VDDCE_4 VDDCE_5 VDDCE_6 VDDCE_7
+  VDDCE_8 VDDCE_9 VDDCE_10 VDDCE_11 VDDCE_12 VDDCE_13 VDDCE_14 VDDCE_15
+  VDDCE_16 VDDCE_17 VDDCE_18 VDDCE_19 VDDCE_20 VDDCE_21 VDDCE_22 VDDCE_23
+  VDDCE_24 VDDCE_25 VDDCE_26 VDDCE_27 VDDCE_28 VDDCE_29 VDDCE_30 VDDCE_31
+  VDDCE_32 VDDCE_33 VDDCE_34 VDDCE_35 VDDCE_36 VDDCE_37 VDDCE_38 VDDCE_39
+  VDDCE_40 VDDCE_41 VDDCE_42 VDDCE_43 VDDCE_44 VDDCE_45 VDDCE_46 VDDCE_47
+  VDDCE_48 VDDCE_49 VDDCE_50 VDDCE_51 VDDCE_52 VDDCE_53 VDDCE_54 VDDCE_55
+  VDDCE_56 VDDCE_57 VDDCE_58 VDDCE_59 VDDCE_60 VDDCE_61 VDDCE_62 VDDCE_63
+  VDDCE_64 VDDCE_65 VDDCE_66 VDDCE_67 VDDCE_68 VDDCE_69 VDDCE_70 VDDCE_71
+  VDDCE_72 VDDCE_73 VDDCE_74 VDDCE_75 VDDCE_76 VDDCE_77 VDDCE_78 VDDCE_79
+  VDDCE_80 VDDCE_81 VDDCE_82 VDDCE_83 VDDCE_84 VDDCE_85 VDDCE_86 VDDCE_87
+  VDDCE_88 VDDCE_89 VDDCE_90 VDDCE_91 VDDCE_92 VDDCE_93 VDDCE_94 VDDCE_95
+  VDDCE_96 VDDCE_97 VDDCE_98 VDDCE_99 VDDCE_100 VDDCE_101 VDDCE_102 VDDCE_103
+  VDDCE_104 VDDC_L VDDC_R VDDPE VDDP_CLKGEN VNWC_0 VNWC_1 VNWC_2 VNWP VPW
+  VSSE WENY_0 WENY_1 WENY_2 WENY_3 WENY_4 WENY_5 WENY_6 WENY_7 WENY_8 WENY_9
+  WENY_10 WENY_11 WENY_12 WENY_13 WENY_14 WENY_15 WENY_16 WENY_17 WENY_18
+  WENY_19 WENY_20 WENY_21 WENY_22 WENY_23 WENY_24 WENY_25 WENY_26 WENY_27
+  WENY_28 WENY_29 WENY_30 WENY_31 WENY_32 WENY_33 WENY_34 WENY_35 WENY_36
+  WENY_37 WENY_38 WENY_39 WENY_40 WENY_41 WENY_42 WENY_43 WENY_44 WENY_45
+  WENY_46 WENY_47 WENY_48 WENY_49 WENY_50 WENY_51 WENY_52 WENY_53 WENY_54
+  WENY_55 WENY_56 WENY_57 WENY_58 WENY_59 WENY_60 WENY_61 WENY_62 WENY_63
+  WENY_64 WENY_65 WENY_66 WENY_67 WENY_68 WENY_69 WENY_70 WENY_71 WENY_72
+  WENY_73 WENY_74 WENY_75 WENY_76 WENY_77 WENY_78 WENY_79 WENY_80 WENY_81
+  WENY_82 WENY_83 WENY_84 WENY_85 WENY_86 WENY_87 WENY_88 WENY_89 WENY_90
+  WENY_91 WENY_92 WENY_93 WENY_94 WENY_95 WENY_96 WENY_97 WENY_98 WENY_99
+  WENY_100 WENY_101 WENY_102 WENY_103 WEN_0 WEN_1 WEN_2 WEN_3 WEN_4 WEN_5
+  WEN_6 WEN_7 WEN_8 WEN_9 WEN_10 WEN_11 WEN_12 WEN_13 WEN_14 WEN_15 WEN_16
+  WEN_17 WEN_18 WEN_19 WEN_20 WEN_21 WEN_22 WEN_23 WEN_24 WEN_25 WEN_26
+  WEN_27 WEN_28 WEN_29 WEN_30 WEN_31 WEN_32 WEN_33 WEN_34 WEN_35 WEN_36
+  WEN_37 WEN_38 WEN_39 WEN_40 WEN_41 WEN_42 WEN_43 WEN_44 WEN_45 WEN_46
+  WEN_47 WEN_48 WEN_49 WEN_50 WEN_51 WEN_52 WEN_53 WEN_54 WEN_55 WEN_56
+  WEN_57 WEN_58 WEN_59 WEN_60 WEN_61 WEN_62 WEN_63 WEN_64 WEN_65 WEN_66
+  WEN_67 WEN_68 WEN_69 WEN_70 WEN_71 WEN_72 WEN_73 WEN_74 WEN_75 WEN_76
+  WEN_77 WEN_78 WEN_79 WEN_80 WEN_81 WEN_82 WEN_83 WEN_84 WEN_85 WEN_86
+  WEN_87 WEN_88 WEN_89 WEN_90 WEN_91 WEN_92 WEN_93 WEN_94 WEN_95 WEN_96
+  WEN_97 WEN_98 WEN_99 WEN_100 WEN_101 WEN_102 WEN_103
** sram520x104BOTCAPROW: 444 flat devices **
XCENTRE CA0 CA1 CA2 CEN CLK DUM_ACTP DUM_NACTC DUM_RETNVT EMA0 EMA1 EMA2 EMAW0
+  EMAW1 GWEN LA0 LA1 LA2 LOG0 RA0 RA1 RA2 RA3 RA4 RA5 RDT RET1N VDDCE_52
+  VDDC_L VDDC_R VDDPE VDDP_CLKGEN VNWC_1 VNWP VPW VPW VSSE
+  sram520x104MIDBOT_WRAPT
XLEFT LOG0 PSI_0 SI_0 VNWC_0 VNWP VPW VPW sram520x104BOTCORNER_WRAPT
XLEFT_COL_0 D_0 LOG0 Q_0 VDDCE_0 VNWP VPW WEN_0 WENY_0 sram520x104BOTCAP4_RPT
XLEFT_COL_1 D_1 LOG0 Q_1 VDDCE_1 VNWP VPW WEN_1 WENY_1 sram520x104BOTCAP4_RPT
XLEFT_COL_10 D_10 LOG0 Q_10 VDDCE_10 VNWP VPW WEN_10 WENY_10
+  sram520x104BOTCAP4_RPT
XLEFT_COL_11 D_11 LOG0 Q_11 VDDCE_11 VNWP VPW WEN_11 WENY_11
+  sram520x104BOTCAP4_RPT
XLEFT_COL_12 D_12 LOG0 Q_12 VDDCE_12 VNWP VPW WEN_12 WENY_12
+  sram520x104BOTCAP4_RPT
XLEFT_COL_13 D_13 LOG0 Q_13 VDDCE_13 VNWP VPW WEN_13 WENY_13
+  sram520x104BOTCAP4_RPT
XLEFT_COL_14 D_14 LOG0 Q_14 VDDCE_14 VNWP VPW WEN_14 WENY_14
+  sram520x104BOTCAP4_RPT
XLEFT_COL_15 D_15 LOG0 Q_15 VDDCE_15 VNWP VPW WEN_15 WENY_15
+  sram520x104BOTCAP4_RPT
XLEFT_COL_16 D_16 LOG0 Q_16 VDDCE_16 VNWP VPW WEN_16 WENY_16
+  sram520x104BOTCAP4_RPT
XLEFT_COL_17 D_17 LOG0 Q_17 VDDCE_17 VNWP VPW WEN_17 WENY_17
+  sram520x104BOTCAP4_RPT
XLEFT_COL_18 D_18 LOG0 Q_18 VDDCE_18 VNWP VPW WEN_18 WENY_18
+  sram520x104BOTCAP4_RPT
XLEFT_COL_19 D_19 LOG0 Q_19 VDDCE_19 VNWP VPW WEN_19 WENY_19
+  sram520x104BOTCAP4_RPT
XLEFT_COL_2 D_2 LOG0 Q_2 VDDCE_2 VNWP VPW WEN_2 WENY_2 sram520x104BOTCAP4_RPT
XLEFT_COL_20 D_20 LOG0 Q_20 VDDCE_20 VNWP VPW WEN_20 WENY_20
+  sram520x104BOTCAP4_RPT
XLEFT_COL_21 D_21 LOG0 Q_21 VDDCE_21 VNWP VPW WEN_21 WENY_21
+  sram520x104BOTCAP4_RPT
XLEFT_COL_22 D_22 LOG0 Q_22 VDDCE_22 VNWP VPW WEN_22 WENY_22
+  sram520x104BOTCAP4_RPT
XLEFT_COL_23 D_23 LOG0 Q_23 VDDCE_23 VNWP VPW WEN_23 WENY_23
+  sram520x104BOTCAP4_RPT
XLEFT_COL_24 D_24 LOG0 Q_24 VDDCE_24 VNWP VPW WEN_24 WENY_24
+  sram520x104BOTCAP4_RPT
XLEFT_COL_25 D_25 LOG0 Q_25 VDDCE_25 VNWP VPW WEN_25 WENY_25
+  sram520x104BOTCAP4_RPT
XLEFT_COL_26 D_26 LOG0 Q_26 VDDCE_26 VNWP VPW WEN_26 WENY_26
+  sram520x104BOTCAP4_RPT
XLEFT_COL_27 D_27 LOG0 Q_27 VDDCE_27 VNWP VPW WEN_27 WENY_27
+  sram520x104BOTCAP4_RPT
XLEFT_COL_28 D_28 LOG0 Q_28 VDDCE_28 VNWP VPW WEN_28 WENY_28
+  sram520x104BOTCAP4_RPT
XLEFT_COL_29 D_29 LOG0 Q_29 VDDCE_29 VNWP VPW WEN_29 WENY_29
+  sram520x104BOTCAP4_RPT
XLEFT_COL_3 D_3 LOG0 Q_3 VDDCE_3 VNWP VPW WEN_3 WENY_3 sram520x104BOTCAP4_RPT
XLEFT_COL_30 D_30 LOG0 Q_30 VDDCE_30 VNWP VPW WEN_30 WENY_30
+  sram520x104BOTCAP4_RPT
XLEFT_COL_31 D_31 LOG0 Q_31 VDDCE_31 VNWP VPW WEN_31 WENY_31
+  sram520x104BOTCAP4_RPT
XLEFT_COL_32 D_32 LOG0 Q_32 VDDCE_32 VNWP VPW WEN_32 WENY_32
+  sram520x104BOTCAP4_RPT
XLEFT_COL_33 D_33 LOG0 Q_33 VDDCE_33 VNWP VPW WEN_33 WENY_33
+  sram520x104BOTCAP4_RPT
XLEFT_COL_34 D_34 LOG0 Q_34 VDDCE_34 VNWP VPW WEN_34 WENY_34
+  sram520x104BOTCAP4_RPT
XLEFT_COL_35 D_35 LOG0 Q_35 VDDCE_35 VNWP VPW WEN_35 WENY_35
+  sram520x104BOTCAP4_RPT
XLEFT_COL_36 D_36 LOG0 Q_36 VDDCE_36 VNWP VPW WEN_36 WENY_36
+  sram520x104BOTCAP4_RPT
XLEFT_COL_37 D_37 LOG0 Q_37 VDDCE_37 VNWP VPW WEN_37 WENY_37
+  sram520x104BOTCAP4_RPT
XLEFT_COL_38 D_38 LOG0 Q_38 VDDCE_38 VNWP VPW WEN_38 WENY_38
+  sram520x104BOTCAP4_RPT
XLEFT_COL_39 D_39 LOG0 Q_39 VDDCE_39 VNWP VPW WEN_39 WENY_39
+  sram520x104BOTCAP4_RPT
XLEFT_COL_4 D_4 LOG0 Q_4 VDDCE_4 VNWP VPW WEN_4 WENY_4 sram520x104BOTCAP4_RPT
XLEFT_COL_40 D_40 LOG0 Q_40 VDDCE_40 VNWP VPW WEN_40 WENY_40
+  sram520x104BOTCAP4_RPT
XLEFT_COL_41 D_41 LOG0 Q_41 VDDCE_41 VNWP VPW WEN_41 WENY_41
+  sram520x104BOTCAP4_RPT
XLEFT_COL_42 D_42 LOG0 Q_42 VDDCE_42 VNWP VPW WEN_42 WENY_42
+  sram520x104BOTCAP4_RPT
XLEFT_COL_43 D_43 LOG0 Q_43 VDDCE_43 VNWP VPW WEN_43 WENY_43
+  sram520x104BOTCAP4_RPT
XLEFT_COL_44 D_44 LOG0 Q_44 VDDCE_44 VNWP VPW WEN_44 WENY_44
+  sram520x104BOTCAP4_RPT
XLEFT_COL_45 D_45 LOG0 Q_45 VDDCE_45 VNWP VPW WEN_45 WENY_45
+  sram520x104BOTCAP4_RPT
XLEFT_COL_46 D_46 LOG0 Q_46 VDDCE_46 VNWP VPW WEN_46 WENY_46
+  sram520x104BOTCAP4_RPT
XLEFT_COL_47 D_47 LOG0 Q_47 VDDCE_47 VNWP VPW WEN_47 WENY_47
+  sram520x104BOTCAP4_RPT
XLEFT_COL_48 D_48 LOG0 Q_48 VDDCE_48 VNWP VPW WEN_48 WENY_48
+  sram520x104BOTCAP4_RPT
XLEFT_COL_49 D_49 LOG0 Q_49 VDDCE_49 VNWP VPW WEN_49 WENY_49
+  sram520x104BOTCAP4_RPT
XLEFT_COL_5 D_5 LOG0 Q_5 VDDCE_5 VNWP VPW WEN_5 WENY_5 sram520x104BOTCAP4_RPT
XLEFT_COL_50 D_50 LOG0 Q_50 VDDCE_50 VNWP VPW WEN_50 WENY_50
+  sram520x104BOTCAP4_RPT
XLEFT_COL_51 D_51 LOG0 Q_51 VDDCE_51 VNWP VPW WEN_51 WENY_51
+  sram520x104BOTCAP4_RPT
XLEFT_COL_6 D_6 LOG0 Q_6 VDDCE_6 VNWP VPW WEN_6 WENY_6 sram520x104BOTCAP4_RPT
XLEFT_COL_7 D_7 LOG0 Q_7 VDDCE_7 VNWP VPW WEN_7 WENY_7 sram520x104BOTCAP4_RPT
XLEFT_COL_8 D_8 LOG0 Q_8 VDDCE_8 VNWP VPW WEN_8 WENY_8 sram520x104BOTCAP4_RPT
XLEFT_COL_9 D_9 LOG0 Q_9 VDDCE_9 VNWP VPW WEN_9 WENY_9 sram520x104BOTCAP4_RPT
XRIGHT LOG0 PSI_1 SI_1 VNWC_2 VNWP VPW VPW sram520x104BOTCORNER_WRAPT
XRIGHT_COL_0 D_52 LOG0 Q_52 VDDCE_53 VNWP VPW WEN_52 WENY_52
+  sram520x104BOTCAP4_RPT
XRIGHT_COL_1 D_53 LOG0 Q_53 VDDCE_54 VNWP VPW WEN_53 WENY_53
+  sram520x104BOTCAP4_RPT
XRIGHT_COL_10 D_62 LOG0 Q_62 VDDCE_63 VNWP VPW WEN_62 WENY_62
+  sram520x104BOTCAP4_RPT
XRIGHT_COL_11 D_63 LOG0 Q_63 VDDCE_64 VNWP VPW WEN_63 WENY_63
+  sram520x104BOTCAP4_RPT
XRIGHT_COL_12 D_64 LOG0 Q_64 VDDCE_65 VNWP VPW WEN_64 WENY_64
+  sram520x104BOTCAP4_RPT
XRIGHT_COL_13 D_65 LOG0 Q_65 VDDCE_66 VNWP VPW WEN_65 WENY_65
+  sram520x104BOTCAP4_RPT
XRIGHT_COL_14 D_66 LOG0 Q_66 VDDCE_67 VNWP VPW WEN_66 WENY_66
+  sram520x104BOTCAP4_RPT
XRIGHT_COL_15 D_67 LOG0 Q_67 VDDCE_68 VNWP VPW WEN_67 WENY_67
+  sram520x104BOTCAP4_RPT
XRIGHT_COL_16 D_68 LOG0 Q_68 VDDCE_69 VNWP VPW WEN_68 WENY_68
+  sram520x104BOTCAP4_RPT
XRIGHT_COL_17 D_69 LOG0 Q_69 VDDCE_70 VNWP VPW WEN_69 WENY_69
+  sram520x104BOTCAP4_RPT
XRIGHT_COL_18 D_70 LOG0 Q_70 VDDCE_71 VNWP VPW WEN_70 WENY_70
+  sram520x104BOTCAP4_RPT
XRIGHT_COL_19 D_71 LOG0 Q_71 VDDCE_72 VNWP VPW WEN_71 WENY_71
+  sram520x104BOTCAP4_RPT
XRIGHT_COL_2 D_54 LOG0 Q_54 VDDCE_55 VNWP VPW WEN_54 WENY_54
+  sram520x104BOTCAP4_RPT
XRIGHT_COL_20 D_72 LOG0 Q_72 VDDCE_73 VNWP VPW WEN_72 WENY_72
+  sram520x104BOTCAP4_RPT
XRIGHT_COL_21 D_73 LOG0 Q_73 VDDCE_74 VNWP VPW WEN_73 WENY_73
+  sram520x104BOTCAP4_RPT
XRIGHT_COL_22 D_74 LOG0 Q_74 VDDCE_75 VNWP VPW WEN_74 WENY_74
+  sram520x104BOTCAP4_RPT
XRIGHT_COL_23 D_75 LOG0 Q_75 VDDCE_76 VNWP VPW WEN_75 WENY_75
+  sram520x104BOTCAP4_RPT
XRIGHT_COL_24 D_76 LOG0 Q_76 VDDCE_77 VNWP VPW WEN_76 WENY_76
+  sram520x104BOTCAP4_RPT
XRIGHT_COL_25 D_77 LOG0 Q_77 VDDCE_78 VNWP VPW WEN_77 WENY_77
+  sram520x104BOTCAP4_RPT
XRIGHT_COL_26 D_78 LOG0 Q_78 VDDCE_79 VNWP VPW WEN_78 WENY_78
+  sram520x104BOTCAP4_RPT
XRIGHT_COL_27 D_79 LOG0 Q_79 VDDCE_80 VNWP VPW WEN_79 WENY_79
+  sram520x104BOTCAP4_RPT
XRIGHT_COL_28 D_80 LOG0 Q_80 VDDCE_81 VNWP VPW WEN_80 WENY_80
+  sram520x104BOTCAP4_RPT
XRIGHT_COL_29 D_81 LOG0 Q_81 VDDCE_82 VNWP VPW WEN_81 WENY_81
+  sram520x104BOTCAP4_RPT
XRIGHT_COL_3 D_55 LOG0 Q_55 VDDCE_56 VNWP VPW WEN_55 WENY_55
+  sram520x104BOTCAP4_RPT
XRIGHT_COL_30 D_82 LOG0 Q_82 VDDCE_83 VNWP VPW WEN_82 WENY_82
+  sram520x104BOTCAP4_RPT
XRIGHT_COL_31 D_83 LOG0 Q_83 VDDCE_84 VNWP VPW WEN_83 WENY_83
+  sram520x104BOTCAP4_RPT
XRIGHT_COL_32 D_84 LOG0 Q_84 VDDCE_85 VNWP VPW WEN_84 WENY_84
+  sram520x104BOTCAP4_RPT
XRIGHT_COL_33 D_85 LOG0 Q_85 VDDCE_86 VNWP VPW WEN_85 WENY_85
+  sram520x104BOTCAP4_RPT
XRIGHT_COL_34 D_86 LOG0 Q_86 VDDCE_87 VNWP VPW WEN_86 WENY_86
+  sram520x104BOTCAP4_RPT
XRIGHT_COL_35 D_87 LOG0 Q_87 VDDCE_88 VNWP VPW WEN_87 WENY_87
+  sram520x104BOTCAP4_RPT
XRIGHT_COL_36 D_88 LOG0 Q_88 VDDCE_89 VNWP VPW WEN_88 WENY_88
+  sram520x104BOTCAP4_RPT
XRIGHT_COL_37 D_89 LOG0 Q_89 VDDCE_90 VNWP VPW WEN_89 WENY_89
+  sram520x104BOTCAP4_RPT
XRIGHT_COL_38 D_90 LOG0 Q_90 VDDCE_91 VNWP VPW WEN_90 WENY_90
+  sram520x104BOTCAP4_RPT
XRIGHT_COL_39 D_91 LOG0 Q_91 VDDCE_92 VNWP VPW WEN_91 WENY_91
+  sram520x104BOTCAP4_RPT
XRIGHT_COL_4 D_56 LOG0 Q_56 VDDCE_57 VNWP VPW WEN_56 WENY_56
+  sram520x104BOTCAP4_RPT
XRIGHT_COL_40 D_92 LOG0 Q_92 VDDCE_93 VNWP VPW WEN_92 WENY_92
+  sram520x104BOTCAP4_RPT
XRIGHT_COL_41 D_93 LOG0 Q_93 VDDCE_94 VNWP VPW WEN_93 WENY_93
+  sram520x104BOTCAP4_RPT
XRIGHT_COL_42 D_94 LOG0 Q_94 VDDCE_95 VNWP VPW WEN_94 WENY_94
+  sram520x104BOTCAP4_RPT
XRIGHT_COL_43 D_95 LOG0 Q_95 VDDCE_96 VNWP VPW WEN_95 WENY_95
+  sram520x104BOTCAP4_RPT
XRIGHT_COL_44 D_96 LOG0 Q_96 VDDCE_97 VNWP VPW WEN_96 WENY_96
+  sram520x104BOTCAP4_RPT
XRIGHT_COL_45 D_97 LOG0 Q_97 VDDCE_98 VNWP VPW WEN_97 WENY_97
+  sram520x104BOTCAP4_RPT
XRIGHT_COL_46 D_98 LOG0 Q_98 VDDCE_99 VNWP VPW WEN_98 WENY_98
+  sram520x104BOTCAP4_RPT
XRIGHT_COL_47 D_99 LOG0 Q_99 VDDCE_100 VNWP VPW WEN_99 WENY_99
+  sram520x104BOTCAP4_RPT
XRIGHT_COL_48 D_100 LOG0 Q_100 VDDCE_101 VNWP VPW WEN_100 WENY_100
+  sram520x104BOTCAP4_RPT
XRIGHT_COL_49 D_101 LOG0 Q_101 VDDCE_102 VNWP VPW WEN_101 WENY_101
+  sram520x104BOTCAP4_RPT
XRIGHT_COL_5 D_57 LOG0 Q_57 VDDCE_58 VNWP VPW WEN_57 WENY_57
+  sram520x104BOTCAP4_RPT
XRIGHT_COL_50 D_102 LOG0 Q_102 VDDCE_103 VNWP VPW WEN_102 WENY_102
+  sram520x104BOTCAP4_RPT
XRIGHT_COL_51 D_103 LOG0 Q_103 VDDCE_104 VNWP VPW WEN_103 WENY_103
+  sram520x104BOTCAP4_RPT
XRIGHT_COL_6 D_58 LOG0 Q_58 VDDCE_59 VNWP VPW WEN_58 WENY_58
+  sram520x104BOTCAP4_RPT
XRIGHT_COL_7 D_59 LOG0 Q_59 VDDCE_60 VNWP VPW WEN_59 WENY_59
+  sram520x104BOTCAP4_RPT
XRIGHT_COL_8 D_60 LOG0 Q_60 VDDCE_61 VNWP VPW WEN_60 WENY_60
+  sram520x104BOTCAP4_RPT
XRIGHT_COL_9 D_61 LOG0 Q_61 VDDCE_62 VNWP VPW WEN_61 WENY_61
+  sram520x104BOTCAP4_RPT
.ENDS sram520x104BOTCAPROW
****
.SUBCKT sram520x104COLM4 BL0 BL1 BL2 BL3 BLPRECH D DUMMY[4] DUMMY[5] DUMMY[6]
+  DUMMY[7] DWL LOG0 NACT_CC NBL0 NBL1 NBL2 NBL3 NSAE NWCLK NYR0 NYR1 NYR2
+  NYR3 SAO SAPRECH VDDC VDDCE VDDPE VNWC VNWP VPW VSS VSSE YW0 YW1 YW2 YW3
** sram520x104COLM4: 91 flat devices **
X_M_cd.I34.MXNA1 _CD.NBLPRECH BLPRECH VSS VPW N11LL_CKT W=0.395U L=0.04U
X_M_cd.I34.MXPA1 _CD.NBLPRECH BLPRECH VDDPE VNWP P11LL_CKT W=0.87U L=0.04U
X_M_cd.I46.MXNA1 _CD.SAE NSAE VSS VPW N11LL_CKT W=0.3U L=0.04U
X_M_cd.I46.MXPA1 _CD.SAE NSAE VDDPE VNWP P11LL_CKT W=0.35U L=0.04U
X_M_cd.I56.MXNA1 _CD.NSAPRECH SAPRECH _CD.I56.N1 VPW N11LL_CKT W=0.16U L=0.04U
X_M_cd.I56.MXNA2 _CD.I56.N1 NSAE VSS VPW N11LL_CKT W=0.16U L=0.04U
X_M_cd.I56.MXPA1 _CD.NSAPRECH SAPRECH VDDPE VNWP P11LL_CKT W=0.56U L=0.04U
X_M_cd.I56.MXPA2 _CD.NSAPRECH NSAE VDDPE VNWP P11LL_CKT W=0.33U L=0.04U
X_M_cd.MXN0 _CD.SAINT LOG0 VSS VPW N11LL_CKT W=1.175U L=0.04U
X_M_cd._cdrw0._mx0.MXN0 NBL0 YW0 WRZERO VPW N11LL_CKT W=0.58U L=0.04U
X_M_cd._cdrw0._mx0.MXN1 BL0 YW0 WRONE VPW N11LL_CKT W=0.58U L=0.04U
X_M_cd._cdrw0._mx0.MXP1 NBL0 _CD.NBLPRECH VDDPE VNWC P11LL_CKT W=0.45U L=0.04U
X_M_cd._cdrw0._mx0.MXP10 _CD._CDRW0._MX0.VVDP NACT_CC VDDPE VNWC P11LL_CKT
+  W=0.28U L=0.04U
X_M_cd._cdrw0._mx0.MXP3 _CD.NSD NYR0 NBL0 VNWC P11LL_CKT W=0.475U L=0.04U
X_M_cd._cdrw0._mx0.MXP4 _CD.SD NYR0 BL0 VNWC P11LL_CKT W=0.475U L=0.04U
X_M_cd._cdrw0._mx0.MXP5 NBL0 BL0 _CD._CDRW0._MX0.VVDP VNWC P11LL_CKT W=0.28U
+  L=0.04U
X_M_cd._cdrw0._mx0.MXP7 BL0 _CD.NBLPRECH VDDPE VNWC P11LL_CKT W=0.45U L=0.04U
X_M_cd._cdrw0._mx0.MXP8 NBL0 _CD.NBLPRECH BL0 VNWC P11LL_CKT W=0.45U L=0.04U
X_M_cd._cdrw0._mx0.MXP9 BL0 NBL0 _CD._CDRW0._MX0.VVDP VNWC P11LL_CKT W=0.28U
+  L=0.04U
X_M_cd._cdrw0._mx1.MXN0 NBL1 YW1 WRZERO VPW N11LL_CKT W=0.58U L=0.04U
X_M_cd._cdrw0._mx1.MXN1 BL1 YW1 WRONE VPW N11LL_CKT W=0.58U L=0.04U
X_M_cd._cdrw0._mx1.MXP1 NBL1 _CD.NBLPRECH VDDPE VNWC P11LL_CKT W=0.45U L=0.04U
X_M_cd._cdrw0._mx1.MXP10 _CD._CDRW0._MX1.VVDP NACT_CC VDDPE VNWC P11LL_CKT
+  W=0.28U L=0.04U
X_M_cd._cdrw0._mx1.MXP3 _CD.NSD NYR1 NBL1 VNWC P11LL_CKT W=0.475U L=0.04U
X_M_cd._cdrw0._mx1.MXP4 _CD.SD NYR1 BL1 VNWC P11LL_CKT W=0.475U L=0.04U
X_M_cd._cdrw0._mx1.MXP5 NBL1 BL1 _CD._CDRW0._MX1.VVDP VNWC P11LL_CKT W=0.28U
+  L=0.04U
X_M_cd._cdrw0._mx1.MXP7 BL1 _CD.NBLPRECH VDDPE VNWC P11LL_CKT W=0.45U L=0.04U
X_M_cd._cdrw0._mx1.MXP8 NBL1 _CD.NBLPRECH BL1 VNWC P11LL_CKT W=0.45U L=0.04U
X_M_cd._cdrw0._mx1.MXP9 BL1 NBL1 _CD._CDRW0._MX1.VVDP VNWC P11LL_CKT W=0.28U
+  L=0.04U
X_M_cd._cdrw1._mx0.MXN0 NBL2 YW2 WRZERO VPW N11LL_CKT W=0.58U L=0.04U
X_M_cd._cdrw1._mx0.MXN1 BL2 YW2 WRONE VPW N11LL_CKT W=0.58U L=0.04U
X_M_cd._cdrw1._mx0.MXP1 NBL2 _CD.NBLPRECH VDDPE VNWC P11LL_CKT W=0.45U L=0.04U
X_M_cd._cdrw1._mx0.MXP10 _CD._CDRW1._MX0.VVDP NACT_CC VDDPE VNWC P11LL_CKT
+  W=0.28U L=0.04U
X_M_cd._cdrw1._mx0.MXP3 _CD.NSD NYR2 NBL2 VNWC P11LL_CKT W=0.475U L=0.04U
X_M_cd._cdrw1._mx0.MXP4 _CD.SD NYR2 BL2 VNWC P11LL_CKT W=0.475U L=0.04U
X_M_cd._cdrw1._mx0.MXP5 NBL2 BL2 _CD._CDRW1._MX0.VVDP VNWC P11LL_CKT W=0.28U
+  L=0.04U
X_M_cd._cdrw1._mx0.MXP7 BL2 _CD.NBLPRECH VDDPE VNWC P11LL_CKT W=0.45U L=0.04U
X_M_cd._cdrw1._mx0.MXP8 NBL2 _CD.NBLPRECH BL2 VNWC P11LL_CKT W=0.45U L=0.04U
X_M_cd._cdrw1._mx0.MXP9 BL2 NBL2 _CD._CDRW1._MX0.VVDP VNWC P11LL_CKT W=0.28U
+  L=0.04U
X_M_cd._cdrw1._mx1.MXN0 NBL3 YW3 WRZERO VPW N11LL_CKT W=0.58U L=0.04U
X_M_cd._cdrw1._mx1.MXN1 BL3 YW3 WRONE VPW N11LL_CKT W=0.58U L=0.04U
X_M_cd._cdrw1._mx1.MXP1 NBL3 _CD.NBLPRECH VDDPE VNWC P11LL_CKT W=0.45U L=0.04U
X_M_cd._cdrw1._mx1.MXP10 _CD._CDRW1._MX1.VVDP NACT_CC VDDPE VNWC P11LL_CKT
+  W=0.28U L=0.04U
X_M_cd._cdrw1._mx1.MXP3 _CD.NSD NYR3 NBL3 VNWC P11LL_CKT W=0.475U L=0.04U
X_M_cd._cdrw1._mx1.MXP4 _CD.SD NYR3 BL3 VNWC P11LL_CKT W=0.475U L=0.04U
X_M_cd._cdrw1._mx1.MXP5 NBL3 BL3 _CD._CDRW1._MX1.VVDP VNWC P11LL_CKT W=0.28U
+  L=0.04U
X_M_cd._cdrw1._mx1.MXP7 BL3 _CD.NBLPRECH VDDPE VNWC P11LL_CKT W=0.45U L=0.04U
X_M_cd._cdrw1._mx1.MXP8 NBL3 _CD.NBLPRECH BL3 VNWC P11LL_CKT W=0.45U L=0.04U
X_M_cd._cdrw1._mx1.MXP9 BL3 NBL3 _CD._CDRW1._MX1.VVDP VNWC P11LL_CKT W=0.28U
+  L=0.04U
X_M_cd._dwl_load_0.MXNpgl VSS DWL VSS VPW N11LL_CKT W=0.6U L=0.06U
X_M_cd._dwl_load_1.MXNpgl VSS DWL VSS VPW N11LL_CKT W=0.6U L=0.06U
X_M_cd._sa1.MXN17 _CD.NSD _CD.SD _CD.SAINT VPW N11LL_CKT W=2.36U L=0.085U
X_M_cd._sa1.MXN18 _CD.SAINT _CD.SAE VSS VPW N11LL_CKT W=1.175U L=0.04U
X_M_cd._sa1.MXN19 _CD.SD _CD.NSD _CD.SAINT VPW N11LL_CKT W=2.36U L=0.085U
X_M_cd._sa1.MXP24 _CD.NSD _CD.NSAPRECH VDDPE VNWP P11LL_CKT W=0.46U L=0.04U
X_M_cd._sa1.MXP25 _CD.NSD _CD.NSAPRECH _CD.SD VNWP P11LL_CKT W=0.46U L=0.04U
X_M_cd._sa1.MXP26 _CD.SD _CD.NSAPRECH VDDPE VNWP P11LL_CKT W=0.46U L=0.04U
X_M_cd._sa1.MXP27 _CD.NSD _CD.SD VDDPE VNWP P11LL_CKT W=0.465U L=0.04U
X_M_cd._sa1.MXP28 _CD.SD _CD.NSD VDDPE VNWP P11LL_CKT W=0.465U L=0.04U
X_M_cd._salat1.I62.MXNA1 SAO _CD._SALAT1.SD_LAT VSS VPW N11LL_CKT W=0.505U
+  L=0.04U
X_M_cd._salat1.I62.MXPA1 SAO _CD._SALAT1.SD_LAT VDDPE VNWP P11LL_CKT W=0.63U
+  L=0.04U
X_M_cd._salat1.I63.MXNA1 _CD._SALAT1.IRD _CD._SALAT1.SD_LAT VSS VPW N11LL_CKT
+  W=0.145U L=0.04U
X_M_cd._salat1.I63.MXPA1 _CD._SALAT1.IRD _CD._SALAT1.SD_LAT VDDPE VNWP
+  P11LL_CKT W=0.165U L=0.04U
X_M_cd._salat1.I82.MXNA1 _CD._SALAT1.NLAT_E _CD.SAE VSS VPW N11LL_CKT W=0.145U
+  L=0.04U
X_M_cd._salat1.I82.MXPA1 _CD._SALAT1.NLAT_E _CD.SAE VDDPE VNWP P11LL_CKT
+  W=0.25U L=0.04U
X_M_cd._salat1.MXN8 _CD._SALAT1.N1B _CD._SALAT1.IRD VSS VPW N11LL_CKT W=0.145U
+  L=0.04U
X_M_cd._salat1.MXN9 _CD._SALAT1.SD_LAT _CD._SALAT1.NLAT_E _CD._SALAT1.N1B VPW
+  N11LL_CKT W=0.145U L=0.04U
X_M_cd._salat1.MXP6 _CD._SALAT1.SD_LAT _CD.SAE _CD._SALAT1.P1B VNWP P11LL_CKT
+  W=0.35U L=0.04U
X_M_cd._salat1.MXP7 _CD._SALAT1.P1B _CD._SALAT1.IRD VDDPE VNWP P11LL_CKT
+  W=0.35U L=0.04U
X_M_cd._salat1.MXPs _CD._SALAT1.SD_LAT _CD.NSD _CD._SALAT1.P1A VNWP P11LL_CKT
+  W=0.56U L=0.04U
X_M_cd._salat1.MX_ndmy _CD._SALAT1.NSD_DUM _CD.SD _CD._SALAT1.N1A VPW
+  N11LL_CKT W=0.42U L=0.04U
X_M_cd._salat1.MX_nlat _CD._SALAT1.N1A _CD.SAE VSS VPW N11LL_CKT W=0.42U
+  L=0.04U
X_M_cd._salat1.MX_pdmy _CD._SALAT1.NSD_DUM _CD.SD _CD._SALAT1.P1A VNWP
+  P11LL_CKT W=0.56U L=0.04U
X_M_cd._salat1.MX_pnsae _CD._SALAT1.P1A _CD._SALAT1.NLAT_E VDDPE VNWP
+  P11LL_CKT W=0.56U L=0.04U
X_M_cd._salat1.MX_sd_n _CD._SALAT1.SD_LAT _CD.NSD _CD._SALAT1.N1A VPW
+  N11LL_CKT W=0.42U L=0.04U
X_M_wr.I156.MXNA1 WRZERO _WR.D_LAT VSS VPW N11LL_CKT W=1.23U L=0.04U
X_M_wr.I156.MXPA1 WRZERO _WR.D_LAT VDDPE VNWP P11LL_CKT W=0.56U L=0.04U
X_M_wr.I165.MXNA1 WRONE _WR.ND_LAT VSS VPW N11LL_CKT W=1.23U L=0.04U
X_M_wr.I165.MXPA1 WRONE _WR.ND_LAT VDDPE VNWP P11LL_CKT W=0.56U L=0.04U
X_M_wr.IV_WrClk.MXNA1 _WR.WCLK NWCLK VSS VPW N11LL_CKT W=0.14U L=0.04U
X_M_wr.IV_WrClk.MXPA1 _WR.WCLK NWCLK VDDPE VNWP P11LL_CKT W=0.28U L=0.04U
X_M_wr._dlat.I47.MXNA1 _WR._DLAT.ND D VSS VPW N11LL_CKT W=0.28U L=0.04U
X_M_wr._dlat.I47.MXPA1 _WR._DLAT.ND D VDDPE VNWP P11LL_CKT W=0.42U L=0.04U
X_M_wr._dlat.I48.MXNOE _WR.ND_LAT NWCLK _WR._DLAT.ND VPW N11LL_CKT W=0.28U
+  L=0.04U
X_M_wr._dlat.I48.MXPOEN _WR.ND_LAT _WR.WCLK _WR._DLAT.ND VNWP P11LL_CKT
+  W=0.42U L=0.04U
X_M_wr._dlat.I50.MXNA1 _WR.D_LAT _WR.ND_LAT VSS VPW N11LL_CKT W=0.28U L=0.04U
X_M_wr._dlat.I50.MXPA1 _WR.D_LAT _WR.ND_LAT VDDPE VNWP P11LL_CKT W=0.42U
+  L=0.04U
X_M_wr._dlat.I55.MXNA1 _WR._DLAT.I55.N1 _WR.D_LAT VSS VPW N11LL_CKT W=0.15U
+  L=0.04U
X_M_wr._dlat.I55.MXNOE _WR.ND_LAT _WR.WCLK _WR._DLAT.I55.N1 VPW N11LL_CKT
+  W=0.15U L=0.04U
X_M_wr._dlat.I55.MXPA1 _WR._DLAT.I55.P1 _WR.D_LAT VDDPE VNWP P11LL_CKT W=0.15U
+  L=0.04U
X_M_wr._dlat.I55.MXPOEN _WR.ND_LAT NWCLK _WR._DLAT.I55.P1 VNWP P11LL_CKT
+  W=0.15U L=0.04U
.ENDS sram520x104COLM4
****
.SUBCKT sram520x104IOCDM_L BL0_0 BL0_1 BL0_2 BL0_3 BL0_4 BL0_5 BL0_6 BL0_7
+  BL0_8 BL0_9 BL0_10 BL0_11 BL0_12 BL0_13 BL0_14 BL0_15 BL0_16 BL0_17 BL0_18
+  BL0_19 BL0_20 BL0_21 BL0_22 BL0_23 BL0_24 BL0_25 BL0_26 BL0_27 BL0_28
+  BL0_29 BL0_30 BL0_31 BL0_32 BL0_33 BL0_34 BL0_35 BL0_36 BL0_37 BL0_38
+  BL0_39 BL0_40 BL0_41 BL0_42 BL0_43 BL0_44 BL0_45 BL0_46 BL0_47 BL0_48
+  BL0_49 BL0_50 BL0_51 BL1_0 BL1_1 BL1_2 BL1_3 BL1_4 BL1_5 BL1_6 BL1_7 BL1_8
+  BL1_9 BL1_10 BL1_11 BL1_12 BL1_13 BL1_14 BL1_15 BL1_16 BL1_17 BL1_18 BL1_19
+  BL1_20 BL1_21 BL1_22 BL1_23 BL1_24 BL1_25 BL1_26 BL1_27 BL1_28 BL1_29
+  BL1_30 BL1_31 BL1_32 BL1_33 BL1_34 BL1_35 BL1_36 BL1_37 BL1_38 BL1_39
+  BL1_40 BL1_41 BL1_42 BL1_43 BL1_44 BL1_45 BL1_46 BL1_47 BL1_48 BL1_49
+  BL1_50 BL1_51 BL2_0 BL2_1 BL2_2 BL2_3 BL2_4 BL2_5 BL2_6 BL2_7 BL2_8 BL2_9
+  BL2_10 BL2_11 BL2_12 BL2_13 BL2_14 BL2_15 BL2_16 BL2_17 BL2_18 BL2_19
+  BL2_20 BL2_21 BL2_22 BL2_23 BL2_24 BL2_25 BL2_26 BL2_27 BL2_28 BL2_29
+  BL2_30 BL2_31 BL2_32 BL2_33 BL2_34 BL2_35 BL2_36 BL2_37 BL2_38 BL2_39
+  BL2_40 BL2_41 BL2_42 BL2_43 BL2_44 BL2_45 BL2_46 BL2_47 BL2_48 BL2_49
+  BL2_50 BL2_51 BL3_0 BL3_1 BL3_2 BL3_3 BL3_4 BL3_5 BL3_6 BL3_7 BL3_8 BL3_9
+  BL3_10 BL3_11 BL3_12 BL3_13 BL3_14 BL3_15 BL3_16 BL3_17 BL3_18 BL3_19
+  BL3_20 BL3_21 BL3_22 BL3_23 BL3_24 BL3_25 BL3_26 BL3_27 BL3_28 BL3_29
+  BL3_30 BL3_31 BL3_32 BL3_33 BL3_34 BL3_35 BL3_36 BL3_37 BL3_38 BL3_39
+  BL3_40 BL3_41 BL3_42 BL3_43 BL3_44 BL3_45 BL3_46 BL3_47 BL3_48 BL3_49
+  BL3_50 BL3_51 BLPRECH DUMMY[4]_0 DUMMY[4]_1 DUMMY[4]_2 DUMMY[4]_3
+  DUMMY[4]_4 DUMMY[4]_5 DUMMY[4]_6 DUMMY[4]_7 DUMMY[4]_8 DUMMY[4]_9
+  DUMMY[4]_10 DUMMY[4]_11 DUMMY[4]_12 DUMMY[4]_13 DUMMY[4]_14 DUMMY[4]_15
+  DUMMY[4]_16 DUMMY[4]_17 DUMMY[4]_18 DUMMY[4]_19 DUMMY[4]_20 DUMMY[4]_21
+  DUMMY[4]_22 DUMMY[4]_23 DUMMY[4]_24 DUMMY[4]_25 DUMMY[4]_26 DUMMY[4]_27
+  DUMMY[4]_28 DUMMY[4]_29 DUMMY[4]_30 DUMMY[4]_31 DUMMY[4]_32 DUMMY[4]_33
+  DUMMY[4]_34 DUMMY[4]_35 DUMMY[4]_36 DUMMY[4]_37 DUMMY[4]_38 DUMMY[4]_39
+  DUMMY[4]_40 DUMMY[4]_41 DUMMY[4]_42 DUMMY[4]_43 DUMMY[4]_44 DUMMY[4]_45
+  DUMMY[4]_46 DUMMY[4]_47 DUMMY[4]_48 DUMMY[4]_49 DUMMY[4]_50 DUMMY[4]_51
+  DUMMY[5]_0 DUMMY[5]_1 DUMMY[5]_2 DUMMY[5]_3 DUMMY[5]_4 DUMMY[5]_5
+  DUMMY[5]_6 DUMMY[5]_7 DUMMY[5]_8 DUMMY[5]_9 DUMMY[5]_10 DUMMY[5]_11
+  DUMMY[5]_12 DUMMY[5]_13 DUMMY[5]_14 DUMMY[5]_15 DUMMY[5]_16 DUMMY[5]_17
+  DUMMY[5]_18 DUMMY[5]_19 DUMMY[5]_20 DUMMY[5]_21 DUMMY[5]_22 DUMMY[5]_23
+  DUMMY[5]_24 DUMMY[5]_25 DUMMY[5]_26 DUMMY[5]_27 DUMMY[5]_28 DUMMY[5]_29
+  DUMMY[5]_30 DUMMY[5]_31 DUMMY[5]_32 DUMMY[5]_33 DUMMY[5]_34 DUMMY[5]_35
+  DUMMY[5]_36 DUMMY[5]_37 DUMMY[5]_38 DUMMY[5]_39 DUMMY[5]_40 DUMMY[5]_41
+  DUMMY[5]_42 DUMMY[5]_43 DUMMY[5]_44 DUMMY[5]_45 DUMMY[5]_46 DUMMY[5]_47
+  DUMMY[5]_48 DUMMY[5]_49 DUMMY[5]_50 DUMMY[5]_51 DUMMY[6]_0 DUMMY[6]_1
+  DUMMY[6]_2 DUMMY[6]_3 DUMMY[6]_4 DUMMY[6]_5 DUMMY[6]_6 DUMMY[6]_7
+  DUMMY[6]_8 DUMMY[6]_9 DUMMY[6]_10 DUMMY[6]_11 DUMMY[6]_12 DUMMY[6]_13
+  DUMMY[6]_14 DUMMY[6]_15 DUMMY[6]_16 DUMMY[6]_17 DUMMY[6]_18 DUMMY[6]_19
+  DUMMY[6]_20 DUMMY[6]_21 DUMMY[6]_22 DUMMY[6]_23 DUMMY[6]_24 DUMMY[6]_25
+  DUMMY[6]_26 DUMMY[6]_27 DUMMY[6]_28 DUMMY[6]_29 DUMMY[6]_30 DUMMY[6]_31
+  DUMMY[6]_32 DUMMY[6]_33 DUMMY[6]_34 DUMMY[6]_35 DUMMY[6]_36 DUMMY[6]_37
+  DUMMY[6]_38 DUMMY[6]_39 DUMMY[6]_40 DUMMY[6]_41 DUMMY[6]_42 DUMMY[6]_43
+  DUMMY[6]_44 DUMMY[6]_45 DUMMY[6]_46 DUMMY[6]_47 DUMMY[6]_48 DUMMY[6]_49
+  DUMMY[6]_50 DUMMY[6]_51 DUMMY[7]_0 DUMMY[7]_1 DUMMY[7]_2 DUMMY[7]_3
+  DUMMY[7]_4 DUMMY[7]_5 DUMMY[7]_6 DUMMY[7]_7 DUMMY[7]_8 DUMMY[7]_9
+  DUMMY[7]_10 DUMMY[7]_11 DUMMY[7]_12 DUMMY[7]_13 DUMMY[7]_14 DUMMY[7]_15
+  DUMMY[7]_16 DUMMY[7]_17 DUMMY[7]_18 DUMMY[7]_19 DUMMY[7]_20 DUMMY[7]_21
+  DUMMY[7]_22 DUMMY[7]_23 DUMMY[7]_24 DUMMY[7]_25 DUMMY[7]_26 DUMMY[7]_27
+  DUMMY[7]_28 DUMMY[7]_29 DUMMY[7]_30 DUMMY[7]_31 DUMMY[7]_32 DUMMY[7]_33
+  DUMMY[7]_34 DUMMY[7]_35 DUMMY[7]_36 DUMMY[7]_37 DUMMY[7]_38 DUMMY[7]_39
+  DUMMY[7]_40 DUMMY[7]_41 DUMMY[7]_42 DUMMY[7]_43 DUMMY[7]_44 DUMMY[7]_45
+  DUMMY[7]_46 DUMMY[7]_47 DUMMY[7]_48 DUMMY[7]_49 DUMMY[7]_50 DUMMY[7]_51 DWL
+  D_0 D_1 D_2 D_3 D_4 D_5 D_6 D_7 D_8 D_9 D_10 D_11 D_12 D_13 D_14 D_15 D_16
+  D_17 D_18 D_19 D_20 D_21 D_22 D_23 D_24 D_25 D_26 D_27 D_28 D_29 D_30 D_31
+  D_32 D_33 D_34 D_35 D_36 D_37 D_38 D_39 D_40 D_41 D_42 D_43 D_44 D_45 D_46
+  D_47 D_48 D_49 D_50 D_51 LOG0 NACT_CC NBL0_0 NBL0_1 NBL0_2 NBL0_3 NBL0_4
+  NBL0_5 NBL0_6 NBL0_7 NBL0_8 NBL0_9 NBL0_10 NBL0_11 NBL0_12 NBL0_13 NBL0_14