* 
* Copyright (c) 1993 - 2022 ARM. All Rights Reserved
* This file has been provided pursuant to a License Agreement
* containing restrictions on its use.  This file contains valuable
* trade secrets and proprietary information of ARM,
* and is protected by patents, copyright law
* and international treaties
* 
* Generated by bif2cdl 3.9.2
* Version: r1p1
* Name: High Density Single Port Register File RVT RVT Compiler | LOGIC0040LL 40nm Process 0.299um^2 Bit Cell
* Comment: This is a memory instance
* Configuration:  -activity_factor 50 -back_biasing off -bits 144 -\
* Configuration: bmux off -bus_notation on -check_instname on -diod\
* Configuration: es on -drive 6 -ema on -frequency 200 -instname sr\
* Configuration: am464x144 -left_bus_delim "[" -mux 2 -mvt "" -name\
* Configuration: _case upper -power_type otc -prefix "" -pwr_gnd_re\
* Configuration: name vddpe:VDDPE,vddce:VDDCE,vsse:VSSE -retention \
* Configuration: on -right_bus_delim "]" -ser none -site_def off -t\
* Configuration: op_layer m5-m10 -words 464 -write_mask off -write_\
* Configuration: thru off -corners ss_0p99v_0p99v_125c,tt_1p10v_1p1\
* Configuration: 0v_125c
* Codefile: 
* 
*
*.BIPOLAR
*.DIOAREA
*.DIOPERI
*
****
.SUBCKT sram464x144BOTCAP2X2 D0 D1 LOG0 Q0 Q1 TD0 TD1 TWEN0 TWEN1 VDDCE VDDPE
+  VNWP VPW VSS VSSE WEN0 WEN1 WENY0 WENY1
** sram464x144BOTCAP2X2: 8 flat devices **
DI13.D_Diode_X_dio VPW TD0 NDIO11LL AREA=0.035P PJ=0.78U
DI17.D_Diode_X_dio VPW D0 NDIO11LL AREA=0.035P PJ=0.78U
DI18.D_Diode_X_dio VPW TWEN0 NDIO11LL AREA=0.035P PJ=0.78U
DI19.D_Diode_X_dio VPW WEN0 NDIO11LL AREA=0.035P PJ=0.78U
DI77.D_Diode_X_dio VPW WEN1 NDIO11LL AREA=0.035P PJ=0.78U
DI78.D_Diode_X_dio VPW TWEN1 NDIO11LL AREA=0.035P PJ=0.78U
DI80.D_Diode_X_dio VPW D1 NDIO11LL AREA=0.035P PJ=0.78U
DI82.D_Diode_X_dio VPW TD1 NDIO11LL AREA=0.035P PJ=0.78U
.ENDS sram464x144BOTCAP2X2
****
.SUBCKT sram464x144BOTCAP2X2_RPT D0 D1 LOG0 Q0 Q1 VDDCE VNWP VPW WEN0 WEN1
+  WENY0 WENY1
** sram464x144BOTCAP2X2_RPT: 8 flat devices **
XI0 D0 D1 LOG0 Q0 Q1 LOG0 LOG0 LOG0 LOG0 VDDCE VNWP VNWP VPW VPW VPW WEN0 WEN1
+  WENY0 WENY1 sram464x144BOTCAP2X2
.ENDS sram464x144BOTCAP2X2_RPT
****
.SUBCKT sram464x144MIDBOT CA0 CA1 CA2 CEN CLK DUM_ACTP DUM_NACTC DUM_RETNVT
+  EMA0 EMA1 EMA2 EMAW0 EMAW1 GWEN LA0 LA1 LA2 LOG0 PGEN RA0 RA1 RA2 RA3 RA4
+  RA5 RDT RET1N RET2N VDDCE VDDC_L VDDC_R VDDPE VDDP_CLKGEN VNWC VNWP VPW VSS
+  VSSE
** sram464x144MIDBOT: 24 flat devices **
DI103.D_Diode_X_dio VPW CLK NDIO11LL AREA=0.035P PJ=0.78U
DI104.D_Diode_X_dio VPW EMAW0 NDIO11LL AREA=0.035P PJ=0.78U
DI105.D_Diode_X_dio VPW EMA2 NDIO11LL AREA=0.035P PJ=0.78U
DI106.D_Diode_X_dio VPW RDT NDIO11LL AREA=0.035P PJ=0.78U
DI107.D_Diode_X_dio VPW RET1N NDIO11LL AREA=0.035P PJ=0.78U
DI109.D_Diode_X_dio VPW EMA0 NDIO11LL AREA=0.035P PJ=0.78U
DI110.D_Diode_X_dio VPW GWEN NDIO11LL AREA=0.035P PJ=0.78U
DI111.D_Diode_X_dio VPW EMAW1 NDIO11LL AREA=0.035P PJ=0.78U
DI112.D_Diode_X_dio VPW EMA1 NDIO11LL AREA=0.035P PJ=0.78U
DI113.D_Diode_X_dio VPW CEN NDIO11LL AREA=0.035P PJ=0.78U
DI125.D_Diode_X_dio VPW PGEN NDIO11LL AREA=0.035P PJ=0.78U
DI127.D_Diode_X_dio VPW RET2N NDIO11LL AREA=0.035P PJ=0.78U
DI59.D_Diode_X_dio VPW CA0 NDIO11LL AREA=0.035P PJ=0.78U
DI61.D_Diode_X_dio VPW CA1 NDIO11LL AREA=0.035P PJ=0.78U
DI62.D_Diode_X_dio VPW LA0 NDIO11LL AREA=0.035P PJ=0.78U
DI63.D_Diode_X_dio VPW CA2 NDIO11LL AREA=0.035P PJ=0.78U
DI64.D_Diode_X_dio VPW RA2 NDIO11LL AREA=0.035P PJ=0.78U
DI67.D_Diode_X_dio VPW RA3 NDIO11LL AREA=0.035P PJ=0.78U
DI68.D_Diode_X_dio VPW RA1 NDIO11LL AREA=0.035P PJ=0.78U
DI69.D_Diode_X_dio VPW RA0 NDIO11LL AREA=0.035P PJ=0.78U
DI70.D_Diode_X_dio VPW RA4 NDIO11LL AREA=0.035P PJ=0.78U
DI71.D_Diode_X_dio VPW RA5 NDIO11LL AREA=0.035P PJ=0.78U
DI72.D_Diode_X_dio VPW LA1 NDIO11LL AREA=0.035P PJ=0.78U
DI73.D_Diode_X_dio VPW LA2 NDIO11LL AREA=0.035P PJ=0.78U
.ENDS sram464x144MIDBOT
****
.SUBCKT sram464x144MIDBOT_WRAPT CA0 CA1 CA2 CEN CLK DUM_ACTP DUM_NACTC
+  DUM_RETNVT EMA0 EMA1 EMA2 EMAW0 EMAW1 GWEN LA0 LA1 LA2 LOG0 RA0 RA1 RA2 RA3
+  RA4 RA5 RDT RET1N VDDCE VDDC_L VDDC_R VDDPE VDDP_CLKGEN VNWC VNWP VPW VSS
+  VSSE
** sram464x144MIDBOT_WRAPT: 24 flat devices **
XI0 CA0 CA1 CA2 CEN CLK DUM_ACTP DUM_NACTC DUM_RETNVT EMA0 EMA1 EMA2 EMAW0
+  EMAW1 GWEN LA0 LA1 LA2 LOG0 PGEN RA0 RA1 RA2 RA3 RA4 RA5 RDT RET1N RET2N
+  VDDCE VDDC_L VDDC_R VDDPE VDDP_CLKGEN VNWC VNWP VPW VSS VSSE
+  sram464x144MIDBOT
.ENDS sram464x144MIDBOT_WRAPT
****
.SUBCKT sram464x144BOTCORNER LOG0 PSI SI VNWC VNWP VPW VSS
** sram464x144BOTCORNER: 2 flat devices **
DI74.D_Diode_X_dio VPW PSI NDIO11LL AREA=0.035P PJ=0.78U
DI85.D_Diode_X_dio VPW SI NDIO11LL AREA=0.035P PJ=0.78U
.ENDS sram464x144BOTCORNER
****
.SUBCKT sram464x144BOTCORNER_WRAPT LOG0 PSI SI VNWC VNWP VPW VSS
** sram464x144BOTCORNER_WRAPT: 2 flat devices **
XI0 LOG0 PSI SI VNWC VNWP VPW VSS sram464x144BOTCORNER
.ENDS sram464x144BOTCORNER_WRAPT
****
.SUBCKT sram464x144BOTCAPROW CA0 CA1 CA2 CEN CLK D0_0 D0_1 D0_2 D0_3 D0_4 D0_5
+  D0_6 D0_7 D0_8 D0_9 D0_10 D0_11 D0_12 D0_13 D0_14 D0_15 D0_16 D0_17 D0_18
+  D0_19 D0_20 D0_21 D0_22 D0_23 D0_24 D0_25 D0_26 D0_27 D0_28 D0_29 D0_30
+  D0_31 D0_32 D0_33 D0_34 D0_35 D0_36 D0_37 D0_38 D0_39 D0_40 D0_41 D0_42
+  D0_43 D0_44 D0_45 D0_46 D0_47 D0_48 D0_49 D0_50 D0_51 D0_52 D0_53 D0_54
+  D0_55 D0_56 D0_57 D0_58 D0_59 D0_60 D0_61 D0_62 D0_63 D0_64 D0_65 D0_66
+  D0_67 D0_68 D0_69 D0_70 D0_71 D1_0 D1_1 D1_2 D1_3 D1_4 D1_5 D1_6 D1_7 D1_8
+  D1_9 D1_10 D1_11 D1_12 D1_13 D1_14 D1_15 D1_16 D1_17 D1_18 D1_19 D1_20
+  D1_21 D1_22 D1_23 D1_24 D1_25 D1_26 D1_27 D1_28 D1_29 D1_30 D1_31 D1_32
+  D1_33 D1_34 D1_35 D1_36 D1_37 D1_38 D1_39 D1_40 D1_41 D1_42 D1_43 D1_44
+  D1_45 D1_46 D1_47 D1_48 D1_49 D1_50 D1_51 D1_52 D1_53 D1_54 D1_55 D1_56
+  D1_57 D1_58 D1_59 D1_60 D1_61 D1_62 D1_63 D1_64 D1_65 D1_66 D1_67 D1_68
+  D1_69 D1_70 D1_71 DUM_ACTP DUM_NACTC DUM_RETNVT EMA0 EMA1 EMA2 EMAW0 EMAW1
+  GWEN LA0 LA1 LA2 LOG0 PSI_0 PSI_1 Q0_0 Q0_1 Q0_2 Q0_3 Q0_4 Q0_5 Q0_6 Q0_7
+  Q0_8 Q0_9 Q0_10 Q0_11 Q0_12 Q0_13 Q0_14 Q0_15 Q0_16 Q0_17 Q0_18 Q0_19 Q0_20
+  Q0_21 Q0_22 Q0_23 Q0_24 Q0_25 Q0_26 Q0_27 Q0_28 Q0_29 Q0_30 Q0_31 Q0_32
+  Q0_33 Q0_34 Q0_35 Q0_36 Q0_37 Q0_38 Q0_39 Q0_40 Q0_41 Q0_42 Q0_43 Q0_44
+  Q0_45 Q0_46 Q0_47 Q0_48 Q0_49 Q0_50 Q0_51 Q0_52 Q0_53 Q0_54 Q0_55 Q0_56
+  Q0_57 Q0_58 Q0_59 Q0_60 Q0_61 Q0_62 Q0_63 Q0_64 Q0_65 Q0_66 Q0_67 Q0_68
+  Q0_69 Q0_70 Q0_71 Q1_0 Q1_1 Q1_2 Q1_3 Q1_4 Q1_5 Q1_6 Q1_7 Q1_8 Q1_9 Q1_10
+  Q1_11 Q1_12 Q1_13 Q1_14 Q1_15 Q1_16 Q1_17 Q1_18 Q1_19 Q1_20 Q1_21 Q1_22
+  Q1_23 Q1_24 Q1_25 Q1_26 Q1_27 Q1_28 Q1_29 Q1_30 Q1_31 Q1_32 Q1_33 Q1_34
+  Q1_35 Q1_36 Q1_37 Q1_38 Q1_39 Q1_40 Q1_41 Q1_42 Q1_43 Q1_44 Q1_45 Q1_46
+  Q1_47 Q1_48 Q1_49 Q1_50 Q1_51 Q1_52 Q1_53 Q1_54 Q1_55 Q1_56 Q1_57 Q1_58
+  Q1_59 Q1_60 Q1_61 Q1_62 Q1_63 Q1_64 Q1_65 Q1_66 Q1_67 Q1_68 Q1_69 Q1_70
+  Q1_71 RA0 RA1 RA2 RA3 RA4 RA5 RDT RET1N SI_0 SI_1 VDDCE_0 VDDCE_1 VDDCE_2
+  VDDCE_3 VDDCE_4 VDDCE_5 VDDCE_6 VDDCE_7 VDDCE_8 VDDCE_9 VDDCE_10 VDDCE_11
+  VDDCE_12 VDDCE_13 VDDCE_14 VDDCE_15 VDDCE_16 VDDCE_17 VDDCE_18 VDDCE_19
+  VDDCE_20 VDDCE_21 VDDCE_22 VDDCE_23 VDDCE_24 VDDCE_25 VDDCE_26 VDDCE_27
+  VDDCE_28 VDDCE_29 VDDCE_30 VDDCE_31 VDDCE_32 VDDCE_33 VDDCE_34 VDDCE_35
+  VDDCE_36 VDDCE_37 VDDCE_38 VDDCE_39 VDDCE_40 VDDCE_41 VDDCE_42 VDDCE_43
+  VDDCE_44 VDDCE_45 VDDCE_46 VDDCE_47 VDDCE_48 VDDCE_49 VDDCE_50 VDDCE_51
+  VDDCE_52 VDDCE_53 VDDCE_54 VDDCE_55 VDDCE_56 VDDCE_57 VDDCE_58 VDDCE_59
+  VDDCE_60 VDDCE_61 VDDCE_62 VDDCE_63 VDDCE_64 VDDCE_65 VDDCE_66 VDDCE_67
+  VDDCE_68 VDDCE_69 VDDCE_70 VDDCE_71 VDDCE_72 VDDC_L VDDC_R VDDPE
+  VDDP_CLKGEN VNWC_0 VNWC_1 VNWC_2 VNWP VPW VSSE WEN0_0 WEN0_1 WEN0_2 WEN0_3
+  WEN0_4 WEN0_5 WEN0_6 WEN0_7 WEN0_8 WEN0_9 WEN0_10 WEN0_11 WEN0_12 WEN0_13
+  WEN0_14 WEN0_15 WEN0_16 WEN0_17 WEN0_18 WEN0_19 WEN0_20 WEN0_21 WEN0_22
+  WEN0_23 WEN0_24 WEN0_25 WEN0_26 WEN0_27 WEN0_28 WEN0_29 WEN0_30 WEN0_31
+  WEN0_32 WEN0_33 WEN0_34 WEN0_35 WEN0_36 WEN0_37 WEN0_38 WEN0_39 WEN0_40
+  WEN0_41 WEN0_42 WEN0_43 WEN0_44 WEN0_45 WEN0_46 WEN0_47 WEN0_48 WEN0_49
+  WEN0_50 WEN0_51 WEN0_52 WEN0_53 WEN0_54 WEN0_55 WEN0_56 WEN0_57 WEN0_58
+  WEN0_59 WEN0_60 WEN0_61 WEN0_62 WEN0_63 WEN0_64 WEN0_65 WEN0_66 WEN0_67
+  WEN0_68 WEN0_69 WEN0_70 WEN0_71 WEN1_0 WEN1_1 WEN1_2 WEN1_3 WEN1_4 WEN1_5
+  WEN1_6 WEN1_7 WEN1_8 WEN1_9 WEN1_10 WEN1_11 WEN1_12 WEN1_13 WEN1_14 WEN1_15
+  WEN1_16 WEN1_17 WEN1_18 WEN1_19 WEN1_20 WEN1_21 WEN1_22 WEN1_23 WEN1_24
+  WEN1_25 WEN1_26 WEN1_27 WEN1_28 WEN1_29 WEN1_30 WEN1_31 WEN1_32 WEN1_33
+  WEN1_34 WEN1_35 WEN1_36 WEN1_37 WEN1_38 WEN1_39 WEN1_40 WEN1_41 WEN1_42
+  WEN1_43 WEN1_44 WEN1_45 WEN1_46 WEN1_47 WEN1_48 WEN1_49 WEN1_50 WEN1_51
+  WEN1_52 WEN1_53 WEN1_54 WEN1_55 WEN1_56 WEN1_57 WEN1_58 WEN1_59 WEN1_60
+  WEN1_61 WEN1_62 WEN1_63 WEN1_64 WEN1_65 WEN1_66 WEN1_67 WEN1_68 WEN1_69
+  WEN1_70 WEN1_71 WENY0_0 WENY0_1 WENY0_2 WENY0_3 WENY0_4 WENY0_5 WENY0_6
+  WENY0_7 WENY0_8 WENY0_9 WENY0_10 WENY0_11 WENY0_12 WENY0_13 WENY0_14
+  WENY0_15 WENY0_16 WENY0_17 WENY0_18 WENY0_19 WENY0_20 WENY0_21 WENY0_22
+  WENY0_23 WENY0_24 WENY0_25 WENY0_26 WENY0_27 WENY0_28 WENY0_29 WENY0_30
+  WENY0_31 WENY0_32 WENY0_33 WENY0_34 WENY0_35 WENY0_36 WENY0_37 WENY0_38
+  WENY0_39 WENY0_40 WENY0_41 WENY0_42 WENY0_43 WENY0_44 WENY0_45 WENY0_46
+  WENY0_47 WENY0_48 WENY0_49 WENY0_50 WENY0_51 WENY0_52 WENY0_53 WENY0_54
+  WENY0_55 WENY0_56 WENY0_57 WENY0_58 WENY0_59 WENY0_60 WENY0_61 WENY0_62
+  WENY0_63 WENY0_64 WENY0_65 WENY0_66 WENY0_67 WENY0_68 WENY0_69 WENY0_70
+  WENY0_71 WENY1_0 WENY1_1 WENY1_2 WENY1_3 WENY1_4 WENY1_5 WENY1_6 WENY1_7
+  WENY1_8 WENY1_9 WENY1_10 WENY1_11 WENY1_12 WENY1_13 WENY1_14 WENY1_15
+  WENY1_16 WENY1_17 WENY1_18 WENY1_19 WENY1_20 WENY1_21 WENY1_22 WENY1_23
+  WENY1_24 WENY1_25 WENY1_26 WENY1_27 WENY1_28 WENY1_29 WENY1_30 WENY1_31
+  WENY1_32 WENY1_33 WENY1_34 WENY1_35 WENY1_36 WENY1_37 WENY1_38 WENY1_39
+  WENY1_40 WENY1_41 WENY1_42 WENY1_43 WENY1_44 WENY1_45 WENY1_46 WENY1_47
+  WENY1_48 WENY1_49 WENY1_50 WENY1_51 WENY1_52 WENY1_53 WENY1_54 WENY1_55
+  WENY1_56 WENY1_57 WENY1_58 WENY1_59 WENY1_60 WENY1_61 WENY1_62 WENY1_63
+  WENY1_64 WENY1_65 WENY1_66 WENY1_67 WENY1_68 WENY1_69 WENY1_70 WENY1_71
** sram464x144BOTCAPROW: 604 flat devices **
XCENTRE CA0 CA1 CA2 CEN CLK DUM_ACTP DUM_NACTC DUM_RETNVT EMA0 EMA1 EMA2 EMAW0
+  EMAW1 GWEN LA0 LA1 LA2 LOG0 RA0 RA1 RA2 RA3 RA4 RA5 RDT RET1N VDDCE_36
+  VDDC_L VDDC_R VDDPE VDDP_CLKGEN VNWC_1 VNWP VPW VPW VSSE
+  sram464x144MIDBOT_WRAPT
XLEFT LOG0 PSI_0 SI_0 VNWC_0 VNWP VPW VPW sram464x144BOTCORNER_WRAPT
XLEFT_COL_0 D0_0 D1_0 LOG0 Q0_0 Q1_0 VDDCE_0 VNWP VPW WEN0_0 WEN1_0 WENY0_0
+  WENY1_0 sram464x144BOTCAP2X2_RPT
XLEFT_COL_1 D0_1 D1_1 LOG0 Q0_1 Q1_1 VDDCE_1 VNWP VPW WEN0_1 WEN1_1 WENY0_1
+  WENY1_1 sram464x144BOTCAP2X2_RPT
XLEFT_COL_10 D0_10 D1_10 LOG0 Q0_10 Q1_10 VDDCE_10 VNWP VPW WEN0_10 WEN1_10
+  WENY0_10 WENY1_10 sram464x144BOTCAP2X2_RPT
XLEFT_COL_11 D0_11 D1_11 LOG0 Q0_11 Q1_11 VDDCE_11 VNWP VPW WEN0_11 WEN1_11
+  WENY0_11 WENY1_11 sram464x144BOTCAP2X2_RPT
XLEFT_COL_12 D0_12 D1_12 LOG0 Q0_12 Q1_12 VDDCE_12 VNWP VPW WEN0_12 WEN1_12
+  WENY0_12 WENY1_12 sram464x144BOTCAP2X2_RPT
XLEFT_COL_13 D0_13 D1_13 LOG0 Q0_13 Q1_13 VDDCE_13 VNWP VPW WEN0_13 WEN1_13
+  WENY0_13 WENY1_13 sram464x144BOTCAP2X2_RPT
XLEFT_COL_14 D0_14 D1_14 LOG0 Q0_14 Q1_14 VDDCE_14 VNWP VPW WEN0_14 WEN1_14
+  WENY0_14 WENY1_14 sram464x144BOTCAP2X2_RPT
XLEFT_COL_15 D0_15 D1_15 LOG0 Q0_15 Q1_15 VDDCE_15 VNWP VPW WEN0_15 WEN1_15
+  WENY0_15 WENY1_15 sram464x144BOTCAP2X2_RPT
XLEFT_COL_16 D0_16 D1_16 LOG0 Q0_16 Q1_16 VDDCE_16 VNWP VPW WEN0_16 WEN1_16
+  WENY0_16 WENY1_16 sram464x144BOTCAP2X2_RPT
XLEFT_COL_17 D0_17 D1_17 LOG0 Q0_17 Q1_17 VDDCE_17 VNWP VPW WEN0_17 WEN1_17
+  WENY0_17 WENY1_17 sram464x144BOTCAP2X2_RPT
XLEFT_COL_18 D0_18 D1_18 LOG0 Q0_18 Q1_18 VDDCE_18 VNWP VPW WEN0_18 WEN1_18
+  WENY0_18 WENY1_18 sram464x144BOTCAP2X2_RPT
XLEFT_COL_19 D0_19 D1_19 LOG0 Q0_19 Q1_19 VDDCE_19 VNWP VPW WEN0_19 WEN1_19
+  WENY0_19 WENY1_19 sram464x144BOTCAP2X2_RPT
XLEFT_COL_2 D0_2 D1_2 LOG0 Q0_2 Q1_2 VDDCE_2 VNWP VPW WEN0_2 WEN1_2 WENY0_2
+  WENY1_2 sram464x144BOTCAP2X2_RPT
XLEFT_COL_20 D0_20 D1_20 LOG0 Q0_20 Q1_20 VDDCE_20 VNWP VPW WEN0_20 WEN1_20
+  WENY0_20 WENY1_20 sram464x144BOTCAP2X2_RPT
XLEFT_COL_21 D0_21 D1_21 LOG0 Q0_21 Q1_21 VDDCE_21 VNWP VPW WEN0_21 WEN1_21
+  WENY0_21 WENY1_21 sram464x144BOTCAP2X2_RPT
XLEFT_COL_22 D0_22 D1_22 LOG0 Q0_22 Q1_22 VDDCE_22 VNWP VPW WEN0_22 WEN1_22
+  WENY0_22 WENY1_22 sram464x144BOTCAP2X2_RPT
XLEFT_COL_23 D0_23 D1_23 LOG0 Q0_23 Q1_23 VDDCE_23 VNWP VPW WEN0_23 WEN1_23
+  WENY0_23 WENY1_23 sram464x144BOTCAP2X2_RPT
XLEFT_COL_24 D0_24 D1_24 LOG0 Q0_24 Q1_24 VDDCE_24 VNWP VPW WEN0_24 WEN1_24
+  WENY0_24 WENY1_24 sram464x144BOTCAP2X2_RPT
XLEFT_COL_25 D0_25 D1_25 LOG0 Q0_25 Q1_25 VDDCE_25 VNWP VPW WEN0_25 WEN1_25
+  WENY0_25 WENY1_25 sram464x144BOTCAP2X2_RPT
XLEFT_COL_26 D0_26 D1_26 LOG0 Q0_26 Q1_26 VDDCE_26 VNWP VPW WEN0_26 WEN1_26
+  WENY0_26 WENY1_26 sram464x144BOTCAP2X2_RPT
XLEFT_COL_27 D0_27 D1_27 LOG0 Q0_27 Q1_27 VDDCE_27 VNWP VPW WEN0_27 WEN1_27
+  WENY0_27 WENY1_27 sram464x144BOTCAP2X2_RPT
XLEFT_COL_28 D0_28 D1_28 LOG0 Q0_28 Q1_28 VDDCE_28 VNWP VPW WEN0_28 WEN1_28
+  WENY0_28 WENY1_28 sram464x144BOTCAP2X2_RPT
XLEFT_COL_29 D0_29 D1_29 LOG0 Q0_29 Q1_29 VDDCE_29 VNWP VPW WEN0_29 WEN1_29
+  WENY0_29 WENY1_29 sram464x144BOTCAP2X2_RPT
XLEFT_COL_3 D0_3 D1_3 LOG0 Q0_3 Q1_3 VDDCE_3 VNWP VPW WEN0_3 WEN1_3 WENY0_3
+  WENY1_3 sram464x144BOTCAP2X2_RPT
XLEFT_COL_30 D0_30 D1_30 LOG0 Q0_30 Q1_30 VDDCE_30 VNWP VPW WEN0_30 WEN1_30
+  WENY0_30 WENY1_30 sram464x144BOTCAP2X2_RPT
XLEFT_COL_31 D0_31 D1_31 LOG0 Q0_31 Q1_31 VDDCE_31 VNWP VPW WEN0_31 WEN1_31
+  WENY0_31 WENY1_31 sram464x144BOTCAP2X2_RPT
XLEFT_COL_32 D0_32 D1_32 LOG0 Q0_32 Q1_32 VDDCE_32 VNWP VPW WEN0_32 WEN1_32
+  WENY0_32 WENY1_32 sram464x144BOTCAP2X2_RPT
XLEFT_COL_33 D0_33 D1_33 LOG0 Q0_33 Q1_33 VDDCE_33 VNWP VPW WEN0_33 WEN1_33
+  WENY0_33 WENY1_33 sram464x144BOTCAP2X2_RPT
XLEFT_COL_34 D0_34 D1_34 LOG0 Q0_34 Q1_34 VDDCE_34 VNWP VPW WEN0_34 WEN1_34
+  WENY0_34 WENY1_34 sram464x144BOTCAP2X2_RPT
XLEFT_COL_35 D0_35 D1_35 LOG0 Q0_35 Q1_35 VDDCE_35 VNWP VPW WEN0_35 WEN1_35
+  WENY0_35 WENY1_35 sram464x144BOTCAP2X2_RPT
XLEFT_COL_4 D0_4 D1_4 LOG0 Q0_4 Q1_4 VDDCE_4 VNWP VPW WEN0_4 WEN1_4 WENY0_4
+  WENY1_4 sram464x144BOTCAP2X2_RPT
XLEFT_COL_5 D0_5 D1_5 LOG0 Q0_5 Q1_5 VDDCE_5 VNWP VPW WEN0_5 WEN1_5 WENY0_5
+  WENY1_5 sram464x144BOTCAP2X2_RPT
XLEFT_COL_6 D0_6 D1_6 LOG0 Q0_6 Q1_6 VDDCE_6 VNWP VPW WEN0_6 WEN1_6 WENY0_6
+  WENY1_6 sram464x144BOTCAP2X2_RPT
XLEFT_COL_7 D0_7 D1_7 LOG0 Q0_7 Q1_7 VDDCE_7 VNWP VPW WEN0_7 WEN1_7 WENY0_7
+  WENY1_7 sram464x144BOTCAP2X2_RPT
XLEFT_COL_8 D0_8 D1_8 LOG0 Q0_8 Q1_8 VDDCE_8 VNWP VPW WEN0_8 WEN1_8 WENY0_8
+  WENY1_8 sram464x144BOTCAP2X2_RPT
XLEFT_COL_9 D0_9 D1_9 LOG0 Q0_9 Q1_9 VDDCE_9 VNWP VPW WEN0_9 WEN1_9 WENY0_9
+  WENY1_9 sram464x144BOTCAP2X2_RPT
XRIGHT LOG0 PSI_1 SI_1 VNWC_2 VNWP VPW VPW sram464x144BOTCORNER_WRAPT
XRIGHT_COL_0 D0_36 D1_36 LOG0 Q0_36 Q1_36 VDDCE_37 VNWP VPW WEN0_36 WEN1_36
+  WENY0_36 WENY1_36 sram464x144BOTCAP2X2_RPT
XRIGHT_COL_1 D0_37 D1_37 LOG0 Q0_37 Q1_37 VDDCE_38 VNWP VPW WEN0_37 WEN1_37
+  WENY0_37 WENY1_37 sram464x144BOTCAP2X2_RPT
XRIGHT_COL_10 D0_46 D1_46 LOG0 Q0_46 Q1_46 VDDCE_47 VNWP VPW WEN0_46 WEN1_46
+  WENY0_46 WENY1_46 sram464x144BOTCAP2X2_RPT
XRIGHT_COL_11 D0_47 D1_47 LOG0 Q0_47 Q1_47 VDDCE_48 VNWP VPW WEN0_47 WEN1_47
+  WENY0_47 WENY1_47 sram464x144BOTCAP2X2_RPT
XRIGHT_COL_12 D0_48 D1_48 LOG0 Q0_48 Q1_48 VDDCE_49 VNWP VPW WEN0_48 WEN1_48
+  WENY0_48 WENY1_48 sram464x144BOTCAP2X2_RPT
XRIGHT_COL_13 D0_49 D1_49 LOG0 Q0_49 Q1_49 VDDCE_50 VNWP VPW WEN0_49 WEN1_49
+  WENY0_49 WENY1_49 sram464x144BOTCAP2X2_RPT
XRIGHT_COL_14 D0_50 D1_50 LOG0 Q0_50 Q1_50 VDDCE_51 VNWP VPW WEN0_50 WEN1_50
+  WENY0_50 WENY1_50 sram464x144BOTCAP2X2_RPT
XRIGHT_COL_15 D0_51 D1_51 LOG0 Q0_51 Q1_51 VDDCE_52 VNWP VPW WEN0_51 WEN1_51
+  WENY0_51 WENY1_51 sram464x144BOTCAP2X2_RPT
XRIGHT_COL_16 D0_52 D1_52 LOG0 Q0_52 Q1_52 VDDCE_53 VNWP VPW WEN0_52 WEN1_52
+  WENY0_52 WENY1_52 sram464x144BOTCAP2X2_RPT
XRIGHT_COL_17 D0_53 D1_53 LOG0 Q0_53 Q1_53 VDDCE_54 VNWP VPW WEN0_53 WEN1_53
+  WENY0_53 WENY1_53 sram464x144BOTCAP2X2_RPT
XRIGHT_COL_18 D0_54 D1_54 LOG0 Q0_54 Q1_54 VDDCE_55 VNWP VPW WEN0_54 WEN1_54
+  WENY0_54 WENY1_54 sram464x144BOTCAP2X2_RPT
XRIGHT_COL_19 D0_55 D1_55 LOG0 Q0_55 Q1_55 VDDCE_56 VNWP VPW WEN0_55 WEN1_55
+  WENY0_55 WENY1_55 sram464x144BOTCAP2X2_RPT
XRIGHT_COL_2 D0_38 D1_38 LOG0 Q0_38 Q1_38 VDDCE_39 VNWP VPW WEN0_38 WEN1_38
+  WENY0_38 WENY1_38 sram464x144BOTCAP2X2_RPT
XRIGHT_COL_20 D0_56 D1_56 LOG0 Q0_56 Q1_56 VDDCE_57 VNWP VPW WEN0_56 WEN1_56
+  WENY0_56 WENY1_56 sram464x144BOTCAP2X2_RPT
XRIGHT_COL_21 D0_57 D1_57 LOG0 Q0_57 Q1_57 VDDCE_58 VNWP VPW WEN0_57 WEN1_57
+  WENY0_57 WENY1_57 sram464x144BOTCAP2X2_RPT
XRIGHT_COL_22 D0_58 D1_58 LOG0 Q0_58 Q1_58 VDDCE_59 VNWP VPW WEN0_58 WEN1_58
+  WENY0_58 WENY1_58 sram464x144BOTCAP2X2_RPT
XRIGHT_COL_23 D0_59 D1_59 LOG0 Q0_59 Q1_59 VDDCE_60 VNWP VPW WEN0_59 WEN1_59
+  WENY0_59 WENY1_59 sram464x144BOTCAP2X2_RPT
XRIGHT_COL_24 D0_60 D1_60 LOG0 Q0_60 Q1_60 VDDCE_61 VNWP VPW WEN0_60 WEN1_60
+  WENY0_60 WENY1_60 sram464x144BOTCAP2X2_RPT
XRIGHT_COL_25 D0_61 D1_61 LOG0 Q0_61 Q1_61 VDDCE_62 VNWP VPW WEN0_61 WEN1_61
+  WENY0_61 WENY1_61 sram464x144BOTCAP2X2_RPT
XRIGHT_COL_26 D0_62 D1_62 LOG0 Q0_62 Q1_62 VDDCE_63 VNWP VPW WEN0_62 WEN1_62
+  WENY0_62 WENY1_62 sram464x144BOTCAP2X2_RPT
XRIGHT_COL_27 D0_63 D1_63 LOG0 Q0_63 Q1_63 VDDCE_64 VNWP VPW WEN0_63 WEN1_63
+  WENY0_63 WENY1_63 sram464x144BOTCAP2X2_RPT
XRIGHT_COL_28 D0_64 D1_64 LOG0 Q0_64 Q1_64 VDDCE_65 VNWP VPW WEN0_64 WEN1_64
+  WENY0_64 WENY1_64 sram464x144BOTCAP2X2_RPT
XRIGHT_COL_29 D0_65 D1_65 LOG0 Q0_65 Q1_65 VDDCE_66 VNWP VPW WEN0_65 WEN1_65
+  WENY0_65 WENY1_65 sram464x144BOTCAP2X2_RPT
XRIGHT_COL_3 D0_39 D1_39 LOG0 Q0_39 Q1_39 VDDCE_40 VNWP VPW WEN0_39 WEN1_39
+  WENY0_39 WENY1_39 sram464x144BOTCAP2X2_RPT
XRIGHT_COL_30 D0_66 D1_66 LOG0 Q0_66 Q1_66 VDDCE_67 VNWP VPW WEN0_66 WEN1_66
+  WENY0_66 WENY1_66 sram464x144BOTCAP2X2_RPT
XRIGHT_COL_31 D0_67 D1_67 LOG0 Q0_67 Q1_67 VDDCE_68 VNWP VPW WEN0_67 WEN1_67
+  WENY0_67 WENY1_67 sram464x144BOTCAP2X2_RPT
XRIGHT_COL_32 D0_68 D1_68 LOG0 Q0_68 Q1_68 VDDCE_69 VNWP VPW WEN0_68 WEN1_68
+  WENY0_68 WENY1_68 sram464x144BOTCAP2X2_RPT
XRIGHT_COL_33 D0_69 D1_69 LOG0 Q0_69 Q1_69 VDDCE_70 VNWP VPW WEN0_69 WEN1_69
+  WENY0_69 WENY1_69 sram464x144BOTCAP2X2_RPT
XRIGHT_COL_34 D0_70 D1_70 LOG0 Q0_70 Q1_70 VDDCE_71 VNWP VPW WEN0_70 WEN1_70
+  WENY0_70 WENY1_70 sram464x144BOTCAP2X2_RPT
XRIGHT_COL_35 D0_71 D1_71 LOG0 Q0_71 Q1_71 VDDCE_72 VNWP VPW WEN0_71 WEN1_71
+  WENY0_71 WENY1_71 sram464x144BOTCAP2X2_RPT
XRIGHT_COL_4 D0_40 D1_40 LOG0 Q0_40 Q1_40 VDDCE_41 VNWP VPW WEN0_40 WEN1_40
+  WENY0_40 WENY1_40 sram464x144BOTCAP2X2_RPT
XRIGHT_COL_5 D0_41 D1_41 LOG0 Q0_41 Q1_41 VDDCE_42 VNWP VPW WEN0_41 WEN1_41
+  WENY0_41 WENY1_41 sram464x144BOTCAP2X2_RPT
XRIGHT_COL_6 D0_42 D1_42 LOG0 Q0_42 Q1_42 VDDCE_43 VNWP VPW WEN0_42 WEN1_42
+  WENY0_42 WENY1_42 sram464x144BOTCAP2X2_RPT
XRIGHT_COL_7 D0_43 D1_43 LOG0 Q0_43 Q1_43 VDDCE_44 VNWP VPW WEN0_43 WEN1_43
+  WENY0_43 WENY1_43 sram464x144BOTCAP2X2_RPT
XRIGHT_COL_8 D0_44 D1_44 LOG0 Q0_44 Q1_44 VDDCE_45 VNWP VPW WEN0_44 WEN1_44
+  WENY0_44 WENY1_44 sram464x144BOTCAP2X2_RPT
XRIGHT_COL_9 D0_45 D1_45 LOG0 Q0_45 Q1_45 VDDCE_46 VNWP VPW WEN0_45 WEN1_45
+  WENY0_45 WENY1_45 sram464x144BOTCAP2X2_RPT
.ENDS sram464x144BOTCAPROW
****
.SUBCKT sram464x144COLM2X2 BL0 BL1 BL2 BL3 BLPRECH D0 D1 DUMMY[0] DUMMY[1]
+  DUMMY[2] DUMMY[3] DUMMY[4] DUMMY[5] DUMMY[6] DUMMY[7] DWL LOG0 NACT_CC NBL0
+  NBL1 NBL2 NBL3 NSAE NWCLK NYR0 NYR1 SAO0 SAO1 SAPRECH VDDC VDDCE VDDPE VNWC
+  VNWP VPW VSS VSSE YW0 YW1
** sram464x144COLM2X2: 133 flat devices **
X_M_cd.I34.MXNA1 _CD.NBLPRECH BLPRECH VSS VPW N11LL_CKT W=0.395U L=0.04U
X_M_cd.I34.MXPA1 _CD.NBLPRECH BLPRECH VDDPE VNWP P11LL_CKT W=0.87U L=0.04U
X_M_cd.I46.MXNA1 _CD.SAE NSAE VSS VPW N11LL_CKT W=0.42U L=0.04U
X_M_cd.I46.MXPA1 _CD.SAE NSAE VDDPE VNWP P11LL_CKT W=0.505U L=0.04U
X_M_cd.I56.MXNA1 _CD.NSAPRECH SAPRECH _CD.I56.N1 VPW N11LL_CKT W=0.21U L=0.04U
X_M_cd.I56.MXNA2 _CD.I56.N1 NSAE VSS VPW N11LL_CKT W=0.21U L=0.04U
X_M_cd.I56.MXPA1 _CD.NSAPRECH SAPRECH VDDPE VNWP P11LL_CKT W=0.63U L=0.04U
X_M_cd.I56.MXPA2 _CD.NSAPRECH NSAE VDDPE VNWP P11LL_CKT W=0.375U L=0.04U
X_M_cd._cdrw0._mx0.MXN0 NBL0 YW0 WRZERO0 VPW N11LL_CKT W=0.58U L=0.04U
X_M_cd._cdrw0._mx0.MXN1 BL0 YW0 WRONE0 VPW N11LL_CKT W=0.58U L=0.04U
X_M_cd._cdrw0._mx0.MXP1 NBL0 _CD.NBLPRECH VDDPE VNWC P11LL_CKT W=0.45U L=0.04U
X_M_cd._cdrw0._mx0.MXP10 _CD._CDRW0._MX0.VVDP NACT_CC VDDPE VNWC P11LL_CKT
+  W=0.28U L=0.04U
X_M_cd._cdrw0._mx0.MXP3 _CD.NSD0 NYR0 NBL0 VNWC P11LL_CKT W=0.475U L=0.04U
X_M_cd._cdrw0._mx0.MXP4 _CD.SD0 NYR0 BL0 VNWC P11LL_CKT W=0.475U L=0.04U
X_M_cd._cdrw0._mx0.MXP5 NBL0 BL0 _CD._CDRW0._MX0.VVDP VNWC P11LL_CKT W=0.28U
+  L=0.04U
X_M_cd._cdrw0._mx0.MXP7 BL0 _CD.NBLPRECH VDDPE VNWC P11LL_CKT W=0.45U L=0.04U
X_M_cd._cdrw0._mx0.MXP8 NBL0 _CD.NBLPRECH BL0 VNWC P11LL_CKT W=0.45U L=0.04U
X_M_cd._cdrw0._mx0.MXP9 BL0 NBL0 _CD._CDRW0._MX0.VVDP VNWC P11LL_CKT W=0.28U
+  L=0.04U
X_M_cd._cdrw0._mx1.MXN0 NBL1 YW1 WRZERO0 VPW N11LL_CKT W=0.58U L=0.04U
X_M_cd._cdrw0._mx1.MXN1 BL1 YW1 WRONE0 VPW N11LL_CKT W=0.58U L=0.04U
X_M_cd._cdrw0._mx1.MXP1 NBL1 _CD.NBLPRECH VDDPE VNWC P11LL_CKT W=0.45U L=0.04U
X_M_cd._cdrw0._mx1.MXP10 _CD._CDRW0._MX1.VVDP NACT_CC VDDPE VNWC P11LL_CKT
+  W=0.28U L=0.04U
X_M_cd._cdrw0._mx1.MXP3 _CD.NSD0 NYR1 NBL1 VNWC P11LL_CKT W=0.475U L=0.04U
X_M_cd._cdrw0._mx1.MXP4 _CD.SD0 NYR1 BL1 VNWC P11LL_CKT W=0.475U L=0.04U
X_M_cd._cdrw0._mx1.MXP5 NBL1 BL1 _CD._CDRW0._MX1.VVDP VNWC P11LL_CKT W=0.28U
+  L=0.04U
X_M_cd._cdrw0._mx1.MXP7 BL1 _CD.NBLPRECH VDDPE VNWC P11LL_CKT W=0.45U L=0.04U
X_M_cd._cdrw0._mx1.MXP8 NBL1 _CD.NBLPRECH BL1 VNWC P11LL_CKT W=0.45U L=0.04U
X_M_cd._cdrw0._mx1.MXP9 BL1 NBL1 _CD._CDRW0._MX1.VVDP VNWC P11LL_CKT W=0.28U
+  L=0.04U
X_M_cd._cdrw1._mx0.MXN0 NBL2 YW0 WRZERO1 VPW N11LL_CKT W=0.58U L=0.04U
X_M_cd._cdrw1._mx0.MXN1 BL2 YW0 WRONE1 VPW N11LL_CKT W=0.58U L=0.04U
X_M_cd._cdrw1._mx0.MXP1 NBL2 _CD.NBLPRECH VDDPE VNWC P11LL_CKT W=0.45U L=0.04U
X_M_cd._cdrw1._mx0.MXP10 _CD._CDRW1._MX0.VVDP NACT_CC VDDPE VNWC P11LL_CKT
+  W=0.28U L=0.04U
X_M_cd._cdrw1._mx0.MXP3 _CD.NSD1 NYR0 NBL2 VNWC P11LL_CKT W=0.475U L=0.04U
X_M_cd._cdrw1._mx0.MXP4 _CD.SD1 NYR0 BL2 VNWC P11LL_CKT W=0.475U L=0.04U
X_M_cd._cdrw1._mx0.MXP5 NBL2 BL2 _CD._CDRW1._MX0.VVDP VNWC P11LL_CKT W=0.28U
+  L=0.04U
X_M_cd._cdrw1._mx0.MXP7 BL2 _CD.NBLPRECH VDDPE VNWC P11LL_CKT W=0.45U L=0.04U
X_M_cd._cdrw1._mx0.MXP8 NBL2 _CD.NBLPRECH BL2 VNWC P11LL_CKT W=0.45U L=0.04U
X_M_cd._cdrw1._mx0.MXP9 BL2 NBL2 _CD._CDRW1._MX0.VVDP VNWC P11LL_CKT W=0.28U
+  L=0.04U
X_M_cd._cdrw1._mx1.MXN0 NBL3 YW1 WRZERO1 VPW N11LL_CKT W=0.58U L=0.04U
X_M_cd._cdrw1._mx1.MXN1 BL3 YW1 WRONE1 VPW N11LL_CKT W=0.58U L=0.04U
X_M_cd._cdrw1._mx1.MXP1 NBL3 _CD.NBLPRECH VDDPE VNWC P11LL_CKT W=0.45U L=0.04U
X_M_cd._cdrw1._mx1.MXP10 _CD._CDRW1._MX1.VVDP NACT_CC VDDPE VNWC P11LL_CKT
+  W=0.28U L=0.04U
X_M_cd._cdrw1._mx1.MXP3 _CD.NSD1 NYR1 NBL3 VNWC P11LL_CKT W=0.475U L=0.04U
X_M_cd._cdrw1._mx1.MXP4 _CD.SD1 NYR1 BL3 VNWC P11LL_CKT W=0.475U L=0.04U
X_M_cd._cdrw1._mx1.MXP5 NBL3 BL3 _CD._CDRW1._MX1.VVDP VNWC P11LL_CKT W=0.28U
+  L=0.04U
X_M_cd._cdrw1._mx1.MXP7 BL3 _CD.NBLPRECH VDDPE VNWC P11LL_CKT W=0.45U L=0.04U
X_M_cd._cdrw1._mx1.MXP8 NBL3 _CD.NBLPRECH BL3 VNWC P11LL_CKT W=0.45U L=0.04U
X_M_cd._cdrw1._mx1.MXP9 BL3 NBL3 _CD._CDRW1._MX1.VVDP VNWC P11LL_CKT W=0.28U
+  L=0.04U
X_M_cd._dwl_load.MXNpgl VSS DWL VSS VPW N11LL_CKT W=1.2U L=0.06U
X_M_cd._sa0.MXN17 _CD.NSD0 _CD.SD0 _CD.NET108 VPW N11LL_CKT W=1.86U L=0.085U
X_M_cd._sa0.MXN18 _CD.NET108 _CD.SAE VSS VPW N11LL_CKT W=0.93U L=0.04U
X_M_cd._sa0.MXN19 _CD.SD0 _CD.NSD0 _CD.NET108 VPW N11LL_CKT W=1.86U L=0.085U
X_M_cd._sa0.MXP24 _CD.NSD0 _CD.NSAPRECH VDDPE VNWP P11LL_CKT W=0.46U L=0.04U
X_M_cd._sa0.MXP25 _CD.NSD0 _CD.NSAPRECH _CD.SD0 VNWP P11LL_CKT W=0.46U L=0.04U
X_M_cd._sa0.MXP26 _CD.SD0 _CD.NSAPRECH VDDPE VNWP P11LL_CKT W=0.46U L=0.04U
X_M_cd._sa0.MXP27 _CD.NSD0 _CD.SD0 VDDPE VNWP P11LL_CKT W=0.465U L=0.04U
X_M_cd._sa0.MXP28 _CD.SD0 _CD.NSD0 VDDPE VNWP P11LL_CKT W=0.465U L=0.04U
X_M_cd._sa1.MXN17 _CD.NSD1 _CD.SD1 _CD.NET117 VPW N11LL_CKT W=1.86U L=0.085U
X_M_cd._sa1.MXN18 _CD.NET117 _CD.SAE VSS VPW N11LL_CKT W=0.93U L=0.04U
X_M_cd._sa1.MXN19 _CD.SD1 _CD.NSD1 _CD.NET117 VPW N11LL_CKT W=1.86U L=0.085U
X_M_cd._sa1.MXP24 _CD.NSD1 _CD.NSAPRECH VDDPE VNWP P11LL_CKT W=0.46U L=0.04U
X_M_cd._sa1.MXP25 _CD.NSD1 _CD.NSAPRECH _CD.SD1 VNWP P11LL_CKT W=0.46U L=0.04U
X_M_cd._sa1.MXP26 _CD.SD1 _CD.NSAPRECH VDDPE VNWP P11LL_CKT W=0.46U L=0.04U
X_M_cd._sa1.MXP27 _CD.NSD1 _CD.SD1 VDDPE VNWP P11LL_CKT W=0.465U L=0.04U
X_M_cd._sa1.MXP28 _CD.SD1 _CD.NSD1 VDDPE VNWP P11LL_CKT W=0.465U L=0.04U
X_M_cd._salat0.I62.MXNA1 SAO0 _CD._SALAT0.SD_LAT VSS VPW N11LL_CKT W=0.505U
+  L=0.04U
X_M_cd._salat0.I62.MXPA1 SAO0 _CD._SALAT0.SD_LAT VDDPE VNWP P11LL_CKT W=0.63U
+  L=0.04U
X_M_cd._salat0.I63.MXNA1 _CD._SALAT0.IRD _CD._SALAT0.SD_LAT VSS VPW N11LL_CKT
+  W=0.145U L=0.04U
X_M_cd._salat0.I63.MXPA1 _CD._SALAT0.IRD _CD._SALAT0.SD_LAT VDDPE VNWP
+  P11LL_CKT W=0.165U L=0.04U
X_M_cd._salat0.I82.MXNA1 _CD._SALAT0.NLAT_E _CD.SAE VSS VPW N11LL_CKT W=0.145U
+  L=0.04U
X_M_cd._salat0.I82.MXPA1 _CD._SALAT0.NLAT_E _CD.SAE VDDPE VNWP P11LL_CKT
+  W=0.25U L=0.04U
X_M_cd._salat0.MXN8 _CD._SALAT0.N1B _CD._SALAT0.IRD VSS VPW N11LL_CKT W=0.145U
+  L=0.04U
X_M_cd._salat0.MXN9 _CD._SALAT0.SD_LAT _CD._SALAT0.NLAT_E _CD._SALAT0.N1B VPW
+  N11LL_CKT W=0.145U L=0.04U
X_M_cd._salat0.MXP6 _CD._SALAT0.SD_LAT _CD.SAE _CD._SALAT0.P1B VNWP P11LL_CKT
+  W=0.35U L=0.04U
X_M_cd._salat0.MXP7 _CD._SALAT0.P1B _CD._SALAT0.IRD VDDPE VNWP P11LL_CKT
+  W=0.35U L=0.04U
X_M_cd._salat0.MXPs _CD._SALAT0.SD_LAT _CD.NSD0 _CD._SALAT0.P1A VNWP P11LL_CKT
+  W=0.56U L=0.04U
X_M_cd._salat0.MX_ndmy _CD._SALAT0.NSD_DUM _CD.SD0 _CD._SALAT0.N1A VPW
+  N11LL_CKT W=0.42U L=0.04U
X_M_cd._salat0.MX_nlat _CD._SALAT0.N1A _CD.SAE VSS VPW N11LL_CKT W=0.42U
+  L=0.04U
X_M_cd._salat0.MX_pdmy _CD._SALAT0.NSD_DUM _CD.SD0 _CD._SALAT0.P1A VNWP
+  P11LL_CKT W=0.56U L=0.04U
X_M_cd._salat0.MX_pnsae _CD._SALAT0.P1A _CD._SALAT0.NLAT_E VDDPE VNWP
+  P11LL_CKT W=0.56U L=0.04U
X_M_cd._salat0.MX_sd_n _CD._SALAT0.SD_LAT _CD.NSD0 _CD._SALAT0.N1A VPW
+  N11LL_CKT W=0.42U L=0.04U
X_M_cd._salat1.I62.MXNA1 SAO1 _CD._SALAT1.SD_LAT VSS VPW N11LL_CKT W=0.505U
+  L=0.04U
X_M_cd._salat1.I62.MXPA1 SAO1 _CD._SALAT1.SD_LAT VDDPE VNWP P11LL_CKT W=0.63U
+  L=0.04U
X_M_cd._salat1.I63.MXNA1 _CD._SALAT1.IRD _CD._SALAT1.SD_LAT VSS VPW N11LL_CKT
+  W=0.145U L=0.04U
X_M_cd._salat1.I63.MXPA1 _CD._SALAT1.IRD _CD._SALAT1.SD_LAT VDDPE VNWP
+  P11LL_CKT W=0.165U L=0.04U
X_M_cd._salat1.I82.MXNA1 _CD._SALAT1.NLAT_E _CD.SAE VSS VPW N11LL_CKT W=0.145U
+  L=0.04U
X_M_cd._salat1.I82.MXPA1 _CD._SALAT1.NLAT_E _CD.SAE VDDPE VNWP P11LL_CKT
+  W=0.25U L=0.04U
X_M_cd._salat1.MXN8 _CD._SALAT1.N1B _CD._SALAT1.IRD VSS VPW N11LL_CKT W=0.145U
+  L=0.04U
X_M_cd._salat1.MXN9 _CD._SALAT1.SD_LAT _CD._SALAT1.NLAT_E _CD._SALAT1.N1B VPW
+  N11LL_CKT W=0.145U L=0.04U
X_M_cd._salat1.MXP6 _CD._SALAT1.SD_LAT _CD.SAE _CD._SALAT1.P1B VNWP P11LL_CKT
+  W=0.35U L=0.04U
X_M_cd._salat1.MXP7 _CD._SALAT1.P1B _CD._SALAT1.IRD VDDPE VNWP P11LL_CKT
+  W=0.35U L=0.04U
X_M_cd._salat1.MXPs _CD._SALAT1.SD_LAT _CD.NSD1 _CD._SALAT1.P1A VNWP P11LL_CKT
+  W=0.56U L=0.04U
X_M_cd._salat1.MX_ndmy _CD._SALAT1.NSD_DUM _CD.SD1 _CD._SALAT1.N1A VPW
+  N11LL_CKT W=0.42U L=0.04U
X_M_cd._salat1.MX_nlat _CD._SALAT1.N1A _CD.SAE VSS VPW N11LL_CKT W=0.42U
+  L=0.04U
X_M_cd._salat1.MX_pdmy _CD._SALAT1.NSD_DUM _CD.SD1 _CD._SALAT1.P1A VNWP
+  P11LL_CKT W=0.56U L=0.04U
X_M_cd._salat1.MX_pnsae _CD._SALAT1.P1A _CD._SALAT1.NLAT_E VDDPE VNWP
+  P11LL_CKT W=0.56U L=0.04U
X_M_cd._salat1.MX_sd_n _CD._SALAT1.SD_LAT _CD.NSD1 _CD._SALAT1.N1A VPW
+  N11LL_CKT W=0.42U L=0.04U
X_M_wr.I156.MXNA1 WRZERO0 _WR.D_LAT0 VSS VPW N11LL_CKT W=1.23U L=0.04U
X_M_wr.I156.MXPA1 WRZERO0 _WR.D_LAT0 VDDPE VNWP P11LL_CKT W=0.56U L=0.04U
X_M_wr.I165.MXNA1 WRONE0 _WR.IND_LAT0 VSS VPW N11LL_CKT W=1.23U L=0.04U
X_M_wr.I165.MXPA1 WRONE0 _WR.IND_LAT0 VDDPE VNWP P11LL_CKT W=0.56U L=0.04U
X_M_wr.I167.MXNA1 WRONE1 _WR.IND_LAT1 VSS VPW N11LL_CKT W=1.23U L=0.04U
X_M_wr.I167.MXPA1 WRONE1 _WR.IND_LAT1 VDDPE VNWP P11LL_CKT W=0.56U L=0.04U
X_M_wr.I168.MXNA1 WRZERO1 _WR.D_LAT1 VSS VPW N11LL_CKT W=1.23U L=0.04U
X_M_wr.I168.MXPA1 WRZERO1 _WR.D_LAT1 VDDPE VNWP P11LL_CKT W=0.56U L=0.04U
X_M_wr.I171.MXNA1 _WR.IND_LAT0 _WR.D_LAT0 VSS VPW N11LL_CKT W=0.21U L=0.04U
X_M_wr.I171.MXPA1 _WR.IND_LAT0 _WR.D_LAT0 VDDPE VNWP P11LL_CKT W=0.42U L=0.04U
X_M_wr.I172.MXNA1 _WR.IND_LAT1 _WR.D_LAT1 VSS VPW N11LL_CKT W=0.21U L=0.04U
X_M_wr.I172.MXPA1 _WR.IND_LAT1 _WR.D_LAT1 VDDPE VNWP P11LL_CKT W=0.42U L=0.04U
X_M_wr.I194.MXNA1 _WR.WCLK NWCLK VSS VPW N11LL_CKT W=0.14U L=0.04U
X_M_wr.I194.MXPA1 _WR.WCLK NWCLK VDDPE VNWP P11LL_CKT W=0.28U L=0.04U
X_M_wr.IV_WrClk.MXNA1 _WR.INWCLK _WR.WCLK VSS VPW N11LL_CKT W=0.14U L=0.04U
X_M_wr.IV_WrClk.MXPA1 _WR.INWCLK _WR.WCLK VDDPE VNWP P11LL_CKT W=0.28U L=0.04U
X_M_wr._dlat0.I47.MXNA1 _WR._DLAT0.ND D0 VSS VPW N11LL_CKT W=0.28U L=0.04U
X_M_wr._dlat0.I47.MXPA1 _WR._DLAT0.ND D0 VDDPE VNWP P11LL_CKT W=0.42U L=0.04U
X_M_wr._dlat0.I48.MXNOE _WR.ND_LAT0 _WR.INWCLK _WR._DLAT0.ND VPW N11LL_CKT
+  W=0.28U L=0.04U
X_M_wr._dlat0.I48.MXPOEN _WR.ND_LAT0 _WR.WCLK _WR._DLAT0.ND VNWP P11LL_CKT
+  W=0.42U L=0.04U
X_M_wr._dlat0.I50.MXNA1 _WR.D_LAT0 _WR.ND_LAT0 VSS VPW N11LL_CKT W=0.28U
+  L=0.04U
X_M_wr._dlat0.I50.MXPA1 _WR.D_LAT0 _WR.ND_LAT0 VDDPE VNWP P11LL_CKT W=0.42U
+  L=0.04U
X_M_wr._dlat0.I55.MXNA1 _WR._DLAT0.I55.N1 _WR.D_LAT0 VSS VPW N11LL_CKT W=0.15U
+  L=0.04U
X_M_wr._dlat0.I55.MXNOE _WR.ND_LAT0 _WR.WCLK _WR._DLAT0.I55.N1 VPW N11LL_CKT
+  W=0.15U L=0.04U
X_M_wr._dlat0.I55.MXPA1 _WR._DLAT0.I55.P1 _WR.D_LAT0 VDDPE VNWP P11LL_CKT
+  W=0.15U L=0.04U
X_M_wr._dlat0.I55.MXPOEN _WR.ND_LAT0 _WR.INWCLK _WR._DLAT0.I55.P1 VNWP
+  P11LL_CKT W=0.15U L=0.04U
X_M_wr._dlat1.I47.MXNA1 _WR._DLAT1.ND D1 VSS VPW N11LL_CKT W=0.28U L=0.04U
X_M_wr._dlat1.I47.MXPA1 _WR._DLAT1.ND D1 VDDPE VNWP P11LL_CKT W=0.42U L=0.04U
X_M_wr._dlat1.I48.MXNOE _WR.ND_LAT1 _WR.INWCLK _WR._DLAT1.ND VPW N11LL_CKT
+  W=0.28U L=0.04U
X_M_wr._dlat1.I48.MXPOEN _WR.ND_LAT1 _WR.WCLK _WR._DLAT1.ND VNWP P11LL_CKT